/*---------------------------------------------------------------------------*\
  =========                 |
  \\      /  F ield         | OpenFOAM: The Open Source CFD Toolbox
   \\    /   O peration     | Website:  https://openfoam.org
    \\  /    A nd           | Version:  7
     \\/     M anipulation  |
\*---------------------------------------------------------------------------*/
Build  : 7-49b2b3b8b082
Exec   : icoFoam -parallel
Date   : Mar 29 2022
Time   : 23:32:49
Host   : "c464-082.stampede2.tacc.utexas.edu"
PID    : 161312
I/O    : uncollated
Case   : /home1/08376/lew2547/openfoam2/circular-cylinder-re110-B2.4
nProcs : 2
Slaves : 1("c464-082.stampede2.tacc.utexas.edu.161313")
Pstream initialized with:
    floatTransfer      : 0
    nProcsSimpleSum    : 0
    commsType          : nonBlocking
    polling iterations : 0
sigFpe : Enabling floating point exception trapping (FOAM_SIGFPE).
fileModificationChecking : Monitoring run-time modified files using timeStampMaster (fileModificationSkew 10)
allowSystemOperations : Allowing user-supplied system call operations

// * * * * * * * * * * * * * * * * * * * * * * * * * * * * * * * * * * * * * //
Create time

Create mesh for time = 0

Reading transportProperties

Reading field p

Reading field U

Reading/calculating face flux field phi


Starting time loop

Reading set description:
    line

forces forces:
    Not including porosity effects
forces forceCoeffs:
    Not including porosity effects
forceCoeffs forceCoeffs:
    Not including porosity effects
Time = 0.005

Courant Number mean: 0.053451 max: 0.266456
smoothSolver:  Solving for Ux, Initial residual = 1, Final residual = 5.55264e-08, No Iterations 5
smoothSolver:  Solving for Uy, Initial residual = 0, Final residual = 0, No Iterations 0
DICPCG:  Solving for p, Initial residual = 1, Final residual = 9.48802e-08, No Iterations 209
time step continuity errors : sum local = 8.16929e-12, global = 1.16432e-14, cumulative = 1.16432e-14
DICPCG:  Solving for p, Initial residual = 0.0536867, Final residual = 8.65038e-08, No Iterations 184
time step continuity errors : sum local = 5.21124e-11, global = -5.53167e-13, cumulative = -5.41524e-13
ExecutionTime = 1.84 s  ClockTime = 5 s

forces forces write:
    sum of forces:
        pressure : (15.5685 -0.00274102 4.29423e-19)
        viscous  : (0.200186 -1.44165e-05 -1.22758e-19)
        porous   : (0 0 0)
    sum of moments:
        pressure : (-2.08467e-18 2.9965e-19 -4.21802e-12)
        viscous  : (1.03645e-19 -2.85516e-20 8.08621e-07)
        porous   : (0 0 0)

forceCoeffs forceCoeffs write:
    Cm    = 1.61723e-05
    Cd    = 315.374
    Cl    = -0.0551088
    Cl(f) = -0.0275382
    Cl(r) = -0.0275706

Time = 0.01

Courant Number mean: 0.0552784 max: 0.44617
smoothSolver:  Solving for Ux, Initial residual = 0.351245, Final residual = 1.03657e-08, No Iterations 5
smoothSolver:  Solving for Uy, Initial residual = 0.332754, Final residual = 1.72194e-08, No Iterations 5
DICPCG:  Solving for p, Initial residual = 0.211276, Final residual = 8.60314e-08, No Iterations 198
time step continuity errors : sum local = 4.86283e-11, global = 7.27887e-14, cumulative = -4.68735e-13
DICPCG:  Solving for p, Initial residual = 0.20368, Final residual = 9.3983e-08, No Iterations 192
time step continuity errors : sum local = 1.53986e-11, global = -1.04579e-14, cumulative = -4.79193e-13
ExecutionTime = 2.03 s  ClockTime = 5 s

forces forces write:
    sum of forces:
        pressure : (0.181401 0.00255132 1.2116e-21)
        viscous  : (0.174957 -9.56827e-07 -3.17289e-21)
        porous   : (0 0 0)
    sum of moments:
        pressure : (-2.92947e-20 5.95891e-21 3.77036e-12)
        viscous  : (8.84274e-22 -4.38053e-21 6.72404e-07)
        porous   : (0 0 0)

forceCoeffs forceCoeffs write:
    Cm    = 1.34482e-05
    Cd    = 7.12716
    Cl    = 0.0510072
    Cl(f) = 0.025517
    Cl(r) = 0.0254901

Time = 0.015

Courant Number mean: 0.0553071 max: 0.424472
smoothSolver:  Solving for Ux, Initial residual = 0.0227104, Final residual = 7.18413e-09, No Iterations 4
smoothSolver:  Solving for Uy, Initial residual = 0.0345136, Final residual = 9.72074e-08, No Iterations 3
DICPCG:  Solving for p, Initial residual = 0.515072, Final residual = 8.86123e-08, No Iterations 194
time step continuity errors : sum local = 8.35465e-12, global = -1.99486e-14, cumulative = -4.99141e-13
DICPCG:  Solving for p, Initial residual = 0.0893562, Final residual = 9.22204e-08, No Iterations 182
time step continuity errors : sum local = 5.19397e-12, global = 6.60278e-15, cumulative = -4.92539e-13
ExecutionTime = 2.21 s  ClockTime = 5 s

forces forces write:
    sum of forces:
        pressure : (0.204975 -0.000106559 8.80637e-22)
        viscous  : (0.15899 -1.25783e-06 -2.90125e-21)
        porous   : (0 0 0)
    sum of moments:
        pressure : (-2.83845e-20 5.23434e-21 9.15366e-14)
        viscous  : (8.35216e-22 -3.9244e-21 5.85392e-07)
        porous   : (0 0 0)

forceCoeffs forceCoeffs write:
    Cm    = 1.17078e-05
    Cd    = 7.2793
    Cl    = -0.00215633
    Cl(f) = -0.00106646
    Cl(r) = -0.00108987

Time = 0.02

Courant Number mean: 0.0553222 max: 0.418652
smoothSolver:  Solving for Ux, Initial residual = 0.0104676, Final residual = 7.57108e-08, No Iterations 3
smoothSolver:  Solving for Uy, Initial residual = 0.00810429, Final residual = 4.53572e-08, No Iterations 3
DICPCG:  Solving for p, Initial residual = 0.224459, Final residual = 8.99529e-08, No Iterations 167
time step continuity errors : sum local = 4.36817e-12, global = 4.52386e-15, cumulative = -4.88015e-13
DICPCG:  Solving for p, Initial residual = 0.0262318, Final residual = 9.41592e-08, No Iterations 165
time step continuity errors : sum local = 3.60876e-12, global = 6.02835e-14, cumulative = -4.27731e-13
ExecutionTime = 2.36 s  ClockTime = 5 s

forces forces write:
    sum of forces:
        pressure : (0.145524 -4.8266e-05 -7.15847e-23)
        viscous  : (0.147051 -1.42535e-06 -2.27044e-21)
        porous   : (0 0 0)
    sum of moments:
        pressure : (-2.0267e-20 4.16486e-21 -1.68982e-14)
        viscous  : (5.16467e-22 -3.59063e-21 5.30236e-07)
        porous   : (0 0 0)

forceCoeffs forceCoeffs write:
    Cm    = 1.06047e-05
    Cd    = 5.85149
    Cl    = -0.000993828
    Cl(f) = -0.000486309
    Cl(r) = -0.000507519

Time = 0.025

Courant Number mean: 0.055334 max: 0.417212
smoothSolver:  Solving for Ux, Initial residual = 0.00861494, Final residual = 6.25154e-08, No Iterations 3
smoothSolver:  Solving for Uy, Initial residual = 0.00696528, Final residual = 5.16745e-08, No Iterations 3
DICPCG:  Solving for p, Initial residual = 0.120162, Final residual = 9.50752e-08, No Iterations 174
time step continuity errors : sum local = 3.31738e-12, global = -7.12714e-15, cumulative = -4.34858e-13
DICPCG:  Solving for p, Initial residual = 0.00948354, Final residual = 9.84587e-08, No Iterations 154
time step continuity errors : sum local = 2.9962e-12, global = 2.20817e-14, cumulative = -4.12777e-13
ExecutionTime = 2.51 s  ClockTime = 5 s

forces forces write:
    sum of forces:
        pressure : (0.1338 -2.39378e-05 -6.5259e-22)
        viscous  : (0.136845 -1.46028e-06 -2.04754e-21)
        porous   : (0 0 0)
    sum of moments:
        pressure : (-1.86449e-20 3.87695e-21 -4.53024e-14)
        viscous  : (5.07968e-22 -3.34073e-21 4.79927e-07)
        porous   : (0 0 0)

forceCoeffs forceCoeffs write:
    Cm    = 9.59855e-06
    Cd    = 5.41289
    Cl    = -0.000507961
    Cl(f) = -0.000244382
    Cl(r) = -0.000263579

Time = 0.03

Courant Number mean: 0.0553437 max: 0.415378
smoothSolver:  Solving for Ux, Initial residual = 0.00752501, Final residual = 5.76756e-08, No Iterations 3
smoothSolver:  Solving for Uy, Initial residual = 0.00616622, Final residual = 5.025e-08, No Iterations 3
DICPCG:  Solving for p, Initial residual = 0.0931353, Final residual = 8.72241e-08, No Iterations 175
time step continuity errors : sum local = 2.46442e-12, global = -3.21182e-14, cumulative = -4.44895e-13
DICPCG:  Solving for p, Initial residual = 0.00682479, Final residual = 9.21149e-08, No Iterations 148
time step continuity errors : sum local = 2.33412e-12, global = -4.69593e-14, cumulative = -4.91854e-13
ExecutionTime = 2.67 s  ClockTime = 5 s

forces forces write:
    sum of forces:
        pressure : (0.126172 -1.10516e-05 -1.16353e-21)
        viscous  : (0.127911 -1.43038e-06 -1.88108e-21)
        porous   : (0 0 0)
    sum of moments:
        pressure : (-1.75678e-20 3.67703e-21 -5.15067e-14)
        viscous  : (5.15416e-22 -3.12458e-21 4.34428e-07)
        porous   : (0 0 0)

forceCoeffs forceCoeffs write:
    Cm    = 8.68856e-06
    Cd    = 5.08167
    Cl    = -0.00024964
    Cl(f) = -0.000116131
    Cl(r) = -0.000133508

Time = 0.035

Courant Number mean: 0.0553518 max: 0.413139
smoothSolver:  Solving for Ux, Initial residual = 0.00672183, Final residual = 5.49732e-08, No Iterations 3
smoothSolver:  Solving for Uy, Initial residual = 0.00557541, Final residual = 4.82825e-08, No Iterations 3
DICPCG:  Solving for p, Initial residual = 0.0760433, Final residual = 9.7919e-08, No Iterations 174
time step continuity errors : sum local = 2.33412e-12, global = -4.09239e-14, cumulative = -5.32778e-13
DICPCG:  Solving for p, Initial residual = 0.00541267, Final residual = 9.13521e-08, No Iterations 155
time step continuity errors : sum local = 1.98624e-12, global = 3.8103e-14, cumulative = -4.94675e-13
ExecutionTime = 2.82 s  ClockTime = 6 s

forces forces write:
    sum of forces:
        pressure : (0.119663 -4.17571e-06 -1.61517e-21)
        viscous  : (0.12001 -1.37034e-06 -1.74172e-21)
        porous   : (0 0 0)
    sum of moments:
        pressure : (-1.66499e-20 3.50683e-21 -4.93822e-14)
        viscous  : (5.22225e-22 -2.93365e-21 3.93469e-07)
        porous   : (0 0 0)

forceCoeffs forceCoeffs write:
    Cm    = 7.86938e-06
    Cd    = 4.79347
    Cl    = -0.000110921
    Cl(f) = -4.75911e-05
    Cl(r) = -6.33299e-05

Time = 0.04

Courant Number mean: 0.0553588 max: 0.410639
smoothSolver:  Solving for Ux, Initial residual = 0.00607111, Final residual = 5.26818e-08, No Iterations 3
smoothSolver:  Solving for Uy, Initial residual = 0.00511536, Final residual = 4.62293e-08, No Iterations 3
DICPCG:  Solving for p, Initial residual = 0.0640823, Final residual = 9.27615e-08, No Iterations 158
time step continuity errors : sum local = 1.91694e-12, global = 5.01792e-15, cumulative = -4.89657e-13
DICPCG:  Solving for p, Initial residual = 0.004521, Final residual = 9.54416e-08, No Iterations 155
time step continuity errors : sum local = 1.8221e-12, global = 3.52936e-14, cumulative = -4.54364e-13
ExecutionTime = 2.97 s  ClockTime = 6 s

forces forces write:
    sum of forces:
        pressure : (0.113738 2.75484e-06 -2.01421e-21)
        viscous  : (0.112976 -1.28342e-06 -1.6214e-21)
        porous   : (0 0 0)
    sum of moments:
        pressure : (-1.58219e-20 3.35567e-21 -4.63007e-14)
        viscous  : (5.26344e-22 -2.76363e-21 3.56631e-07)
        porous   : (0 0 0)

forceCoeffs forceCoeffs write:
    Cm    = 7.13261e-06
    Cd    = 4.53427
    Cl    = 2.94285e-05
    Cl(f) = 2.18469e-05
    Cl(r) = 7.58164e-06

Time = 0.045

Courant Number mean: 0.0553649 max: 0.407839
smoothSolver:  Solving for Ux, Initial residual = 0.00552735, Final residual = 5.04079e-08, No Iterations 3
smoothSolver:  Solving for Uy, Initial residual = 0.00473685, Final residual = 4.41524e-08, No Iterations 3
DICPCG:  Solving for p, Initial residual = 0.0555504, Final residual = 9.0278e-08, No Iterations 174
time step continuity errors : sum local = 1.65217e-12, global = -2.44298e-14, cumulative = -4.78793e-13
DICPCG:  Solving for p, Initial residual = 0.00390745, Final residual = 9.12997e-08, No Iterations 156
time step continuity errors : sum local = 1.5599e-12, global = 2.46305e-14, cumulative = -4.54163e-13
ExecutionTime = 3.12 s  ClockTime = 6 s

forces forces write:
    sum of forces:
        pressure : (0.108287 6.58971e-06 -2.36646e-21)
        viscous  : (0.106683 -1.18489e-06 -1.51654e-21)
        porous   : (0 0 0)
    sum of moments:
        pressure : (-1.50665e-20 3.21894e-21 -4.26844e-14)
        viscous  : (5.28064e-22 -2.61132e-21 3.23561e-07)
        porous   : (0 0 0)

forceCoeffs forceCoeffs write:
    Cm    = 6.47122e-06
    Cd    = 4.2994
    Cl    = 0.000108096
    Cl(f) = 6.05194e-05
    Cl(r) = 4.75769e-05

Time = 0.05

Courant Number mean: 0.0553702 max: 0.404779
smoothSolver:  Solving for Ux, Initial residual = 0.00506582, Final residual = 4.81269e-08, No Iterations 3
smoothSolver:  Solving for Uy, Initial residual = 0.00441442, Final residual = 4.20659e-08, No Iterations 3
DICPCG:  Solving for p, Initial residual = 0.0490096, Final residual = 9.48389e-08, No Iterations 173
time step continuity errors : sum local = 1.56447e-12, global = -1.35349e-16, cumulative = -4.54298e-13
DICPCG:  Solving for p, Initial residual = 0.00346568, Final residual = 9.63949e-08, No Iterations 156
time step continuity errors : sum local = 1.49791e-12, global = 1.34868e-14, cumulative = -4.40811e-13
ExecutionTime = 3.28 s  ClockTime = 6 s

forces forces write:
    sum of forces:
        pressure : (0.103279 8.62532e-06 -2.67822e-21)
        viscous  : (0.101032 -1.0834e-06 -1.42486e-21)
        porous   : (0 0 0)
    sum of moments:
        pressure : (-1.43755e-20 3.09405e-21 -3.90467e-14)
        viscous  : (5.27879e-22 -2.47422e-21 2.93939e-07)
        porous   : (0 0 0)

forceCoeffs forceCoeffs write:
    Cm    = 5.87879e-06
    Cd    = 4.08622
    Cl    = 0.000150838
    Cl(f) = 8.1298e-05
    Cl(r) = 6.95404e-05

Time = 0.055

Courant Number mean: 0.0553749 max: 0.401509
smoothSolver:  Solving for Ux, Initial residual = 0.0046693, Final residual = 4.61825e-08, No Iterations 3
smoothSolver:  Solving for Uy, Initial residual = 0.00413284, Final residual = 3.99846e-08, No Iterations 3
DICPCG:  Solving for p, Initial residual = 0.0438069, Final residual = 9.98155e-08, No Iterations 173
time step continuity errors : sum local = 1.50662e-12, global = 8.24117e-16, cumulative = -4.39987e-13
DICPCG:  Solving for p, Initial residual = 0.00311374, Final residual = 9.63057e-08, No Iterations 157
time step continuity errors : sum local = 1.3796e-12, global = 5.37813e-15, cumulative = -4.34609e-13
ExecutionTime = 3.44 s  ClockTime = 6 s

forces forces write:
    sum of forces:
        pressure : (0.0986871 1.01392e-05 -2.95469e-21)
        viscous  : (0.0959404 -9.83837e-07 -1.3446e-21)
        porous   : (0 0 0)
    sum of moments:
        pressure : (-1.37408e-20 2.97994e-21 -3.85478e-14)
        viscous  : (5.2611e-22 -2.35036e-21 2.67431e-07)
        porous   : (0 0 0)

forceCoeffs forceCoeffs write:
    Cm    = 5.34861e-06
    Cd    = 3.89255
    Cl    = 0.000183106
    Cl(f) = 9.69018e-05
    Cl(r) = 8.62046e-05

Time = 0.06

Courant Number mean: 0.0553791 max: 0.398064
smoothSolver:  Solving for Ux, Initial residual = 0.00432377, Final residual = 4.43244e-08, No Iterations 3
smoothSolver:  Solving for Uy, Initial residual = 0.00388307, Final residual = 3.79249e-08, No Iterations 3
DICPCG:  Solving for p, Initial residual = 0.0392404, Final residual = 9.61836e-08, No Iterations 174
time step continuity errors : sum local = 1.34425e-12, global = -9.03035e-15, cumulative = -4.43639e-13
DICPCG:  Solving for p, Initial residual = 0.00282974, Final residual = 9.61563e-08, No Iterations 157
time step continuity errors : sum local = 1.28284e-12, global = 1.25002e-14, cumulative = -4.31139e-13
ExecutionTime = 3.6 s  ClockTime = 6 s

forces forces write:
    sum of forces:
        pressure : (0.0944854 1.11639e-05 -3.20015e-21)
        viscous  : (0.09134 -8.86704e-07 -1.27428e-21)
        porous   : (0 0 0)
    sum of moments:
        pressure : (-1.31577e-20 2.8759e-21 -3.53985e-14)
        viscous  : (5.23106e-22 -2.23817e-21 2.43721e-07)
        porous   : (0 0 0)

forceCoeffs forceCoeffs write:
    Cm    = 4.87443e-06
    Cd    = 3.71651
    Cl    = 0.000205544
    Cl(f) = 0.000107646
    Cl(r) = 9.78974e-05

Time = 0.065

Courant Number mean: 0.0553829 max: 0.394488
smoothSolver:  Solving for Ux, Initial residual = 0.00402174, Final residual = 4.25355e-08, No Iterations 3
smoothSolver:  Solving for Uy, Initial residual = 0.00366095, Final residual = 3.59047e-08, No Iterations 3
DICPCG:  Solving for p, Initial residual = 0.0357643, Final residual = 8.98243e-08, No Iterations 175
time step continuity errors : sum local = 1.17353e-12, global = -1.18094e-14, cumulative = -4.42949e-13
DICPCG:  Solving for p, Initial residual = 0.00262549, Final residual = 9.15815e-08, No Iterations 157
time step continuity errors : sum local = 1.14795e-12, global = 1.55667e-14, cumulative = -4.27382e-13
ExecutionTime = 3.75 s  ClockTime = 6 s

forces forces write:
    sum of forces:
        pressure : (0.0906493 1.22314e-05 -3.41893e-21)
        viscous  : (0.0871723 -7.91896e-07 -1.21265e-21)
        porous   : (0 0 0)
    sum of moments:
        pressure : (-1.26253e-20 2.78134e-21 -3.43422e-14)
        viscous  : (5.19335e-22 -2.13635e-21 2.22524e-07)
        porous   : (0 0 0)

forceCoeffs forceCoeffs write:
    Cm    = 4.45048e-06
    Cd    = 3.55643
    Cl    = 0.00022879
    Cl(f) = 0.000118846
    Cl(r) = 0.000109945

Time = 0.07

Courant Number mean: 0.0553863 max: 0.39088
smoothSolver:  Solving for Ux, Initial residual = 0.00375756, Final residual = 4.08497e-08, No Iterations 3
smoothSolver:  Solving for Uy, Initial residual = 0.00346185, Final residual = 3.39364e-08, No Iterations 3
DICPCG:  Solving for p, Initial residual = 0.0326974, Final residual = 8.83235e-08, No Iterations 175
time step continuity errors : sum local = 1.08749e-12, global = -9.59946e-15, cumulative = -4.36981e-13
DICPCG:  Solving for p, Initial residual = 0.00243394, Final residual = 9.64185e-08, No Iterations 150
time step continuity errors : sum local = 1.14386e-12, global = 1.05554e-14, cumulative = -4.26426e-13
ExecutionTime = 3.9 s  ClockTime = 7 s

forces forces write:
    sum of forces:
        pressure : (0.0871432 1.26218e-05 -3.6152e-21)
        viscous  : (0.0833876 -7.02938e-07 -1.15866e-21)
        porous   : (0 0 0)
    sum of moments:
        pressure : (-1.21377e-20 2.69501e-21 -3.39292e-14)
        viscous  : (5.14891e-22 -2.04362e-21 2.03584e-07)
        porous   : (0 0 0)

forceCoeffs forceCoeffs write:
    Cm    = 4.07169e-06
    Cd    = 3.41062
    Cl    = 0.000238377
    Cl(f) = 0.00012326
    Cl(r) = 0.000115117

Time = 0.075

Courant Number mean: 0.0553894 max: 0.387257
smoothSolver:  Solving for Ux, Initial residual = 0.00352669, Final residual = 3.92557e-08, No Iterations 3
smoothSolver:  Solving for Uy, Initial residual = 0.00328407, Final residual = 3.20382e-08, No Iterations 3
DICPCG:  Solving for p, Initial residual = 0.0303225, Final residual = 9.87183e-08, No Iterations 174
time step continuity errors : sum local = 1.15324e-12, global = -5.61609e-15, cumulative = -4.32042e-13
DICPCG:  Solving for p, Initial residual = 0.00230972, Final residual = 9.16561e-08, No Iterations 146
time step continuity errors : sum local = 1.03542e-12, global = -3.56217e-15, cumulative = -4.35604e-13
ExecutionTime = 4.06 s  ClockTime = 7 s

forces forces write:
    sum of forces:
        pressure : (0.0839414 1.28197e-05 -3.79203e-21)
        viscous  : (0.0799428 -6.17588e-07 -1.11141e-21)
        porous   : (0 0 0)
    sum of moments:
        pressure : (-1.16927e-20 2.61636e-21 -3.23056e-14)
        viscous  : (5.09999e-22 -1.959e-21 1.86673e-07)
        porous   : (0 0 0)

forceCoeffs forceCoeffs write:
    Cm    = 3.73347e-06
    Cd    = 3.27769
    Cl    = 0.000244042
    Cl(f) = 0.000125754
    Cl(r) = 0.000118287

Time = 0.08

Courant Number mean: 0.0553922 max: 0.383594
smoothSolver:  Solving for Ux, Initial residual = 0.00332073, Final residual = 3.77461e-08, No Iterations 3
smoothSolver:  Solving for Uy, Initial residual = 0.00312909, Final residual = 3.02584e-08, No Iterations 3
DICPCG:  Solving for p, Initial residual = 0.0281687, Final residual = 9.30269e-08, No Iterations 174
time step continuity errors : sum local = 1.03746e-12, global = -2.82608e-15, cumulative = -4.3843e-13
DICPCG:  Solving for p, Initial residual = 0.00219824, Final residual = 8.98863e-08, No Iterations 135
time step continuity errors : sum local = 9.72945e-13, global = -1.70211e-14, cumulative = -4.55451e-13
ExecutionTime = 4.21 s  ClockTime = 7 s

forces forces write:
    sum of forces:
        pressure : (0.0810223 1.25316e-05 -3.95068e-21)
        viscous  : (0.0768002 -5.41152e-07 -1.07008e-21)
        porous   : (0 0 0)
    sum of moments:
        pressure : (-1.12891e-20 2.5447e-21 -3.1777e-14)
        viscous  : (5.04943e-22 -1.8816e-21 1.71583e-07)
        porous   : (0 0 0)

forceCoeffs forceCoeffs write:
    Cm    = 3.43166e-06
    Cd    = 3.15645
    Cl    = 0.000239809
    Cl(f) = 0.000123336
    Cl(r) = 0.000116473

Time = 0.085

Courant Number mean: 0.0553948 max: 0.380278
smoothSolver:  Solving for Ux, Initial residual = 0.00313548, Final residual = 3.62883e-08, No Iterations 3
smoothSolver:  Solving for Uy, Initial residual = 0.00298943, Final residual = 2.85916e-08, No Iterations 3
DICPCG:  Solving for p, Initial residual = 0.0260222, Final residual = 8.77858e-08, No Iterations 174
time step continuity errors : sum local = 9.39654e-13, global = -1.05825e-15, cumulative = -4.5651e-13
DICPCG:  Solving for p, Initial residual = 0.00207488, Final residual = 8.63925e-08, No Iterations 135
time step continuity errors : sum local = 8.99985e-13, global = -1.55687e-14, cumulative = -4.72078e-13
ExecutionTime = 4.36 s  ClockTime = 7 s

forces forces write:
    sum of forces:
        pressure : (0.078351 1.22939e-05 -4.09388e-21)
        viscous  : (0.0739274 -4.71126e-07 -1.03397e-21)
        porous   : (0 0 0)
    sum of moments:
        pressure : (-1.09187e-20 2.47905e-21 -3.15744e-14)
        viscous  : (4.99427e-22 -1.8107e-21 1.58115e-07)
        porous   : (0 0 0)

forceCoeffs forceCoeffs write:
    Cm    = 3.1623e-06
    Cd    = 3.04557
    Cl    = 0.000236456
    Cl(f) = 0.00012139
    Cl(r) = 0.000115066

Time = 0.09

Courant Number mean: 0.0553972 max: 0.37994
smoothSolver:  Solving for Ux, Initial residual = 0.00296877, Final residual = 3.4896e-08, No Iterations 3
smoothSolver:  Solving for Uy, Initial residual = 0.00286317, Final residual = 2.70773e-08, No Iterations 3
DICPCG:  Solving for p, Initial residual = 0.0244058, Final residual = 9.66463e-08, No Iterations 173
time step continuity errors : sum local = 9.96924e-13, global = -1.57977e-16, cumulative = -4.72236e-13
DICPCG:  Solving for p, Initial residual = 0.00198964, Final residual = 9.9513e-08, No Iterations 134
time step continuity errors : sum local = 1.00126e-12, global = -1.15477e-14, cumulative = -4.83784e-13
ExecutionTime = 4.51 s  ClockTime = 7 s

forces forces write:
    sum of forces:
        pressure : (0.0759069 1.19633e-05 -4.22338e-21)
        viscous  : (0.0712957 -4.06713e-07 -1.00251e-21)
        porous   : (0 0 0)
    sum of moments:
        pressure : (-1.058e-20 2.4188e-21 -3.05118e-14)
        viscous  : (4.93708e-22 -1.74555e-21 1.46097e-07)
        porous   : (0 0 0)

forceCoeffs forceCoeffs write:
    Cm    = 2.92194e-06
    Cd    = 2.94405
    Cl    = 0.000231132
    Cl(f) = 0.000118488
    Cl(r) = 0.000112644

Time = 0.095

Courant Number mean: 0.0553994 max: 0.379515
smoothSolver:  Solving for Ux, Initial residual = 0.00281845, Final residual = 3.36063e-08, No Iterations 3
smoothSolver:  Solving for Uy, Initial residual = 0.00274797, Final residual = 2.56437e-08, No Iterations 3
DICPCG:  Solving for p, Initial residual = 0.0229614, Final residual = 9.23731e-08, No Iterations 173
time step continuity errors : sum local = 9.21048e-13, global = -1.79292e-16, cumulative = -4.83963e-13
DICPCG:  Solving for p, Initial residual = 0.00190341, Final residual = 8.94645e-08, No Iterations 135
time step continuity errors : sum local = 8.71561e-13, global = -1.26439e-14, cumulative = -4.96607e-13
ExecutionTime = 4.65 s  ClockTime = 7 s

forces forces write:
    sum of forces:
        pressure : (0.0736648 1.19374e-05 -4.34163e-21)
        viscous  : (0.0688799 -3.47767e-07 -9.75152e-22)
        porous   : (0 0 0)
    sum of moments:
        pressure : (-1.02683e-20 2.36341e-21 -3.15341e-14)
        viscous  : (4.8772e-22 -1.68554e-21 1.35366e-07)
        porous   : (0 0 0)

forceCoeffs forceCoeffs write:
    Cm    = 2.70733e-06
    Cd    = 2.85089
    Cl    = 0.000231792
    Cl(f) = 0.000118603
    Cl(r) = 0.000113189

Time = 0.1

Courant Number mean: 0.0554014 max: 0.379009
smoothSolver:  Solving for Ux, Initial residual = 0.00268246, Final residual = 3.28479e-08, No Iterations 3
smoothSolver:  Solving for Uy, Initial residual = 0.00264271, Final residual = 2.45009e-08, No Iterations 3
DICPCG:  Solving for p, Initial residual = 0.0217522, Final residual = 9.65649e-08, No Iterations 172
time step continuity errors : sum local = 9.32654e-13, global = -1.73901e-15, cumulative = -4.98346e-13
DICPCG:  Solving for p, Initial residual = 0.00183964, Final residual = 9.56649e-08, No Iterations 147
time step continuity errors : sum local = 9.03885e-13, global = 6.40947e-15, cumulative = -4.91937e-13
ExecutionTime = 4.81 s  ClockTime = 8 s

forces forces write:
    sum of forces:
        pressure : (0.0716067 1.11755e-05 -4.44877e-21)
        viscous  : (0.0666578 -2.95956e-07 -9.51404e-22)
        porous   : (0 0 0)
    sum of moments:
        pressure : (-9.9812e-21 2.31241e-21 -3.00691e-14)
        viscous  : (4.8153e-22 -1.63019e-21 1.25792e-07)
        porous   : (0 0 0)

forceCoeffs forceCoeffs write:
    Cm    = 2.51584e-06
    Cd    = 2.76529
    Cl    = 0.000217592
    Cl(f) = 0.000111312
    Cl(r) = 0.00010628

Time = 0.105

Courant Number mean: 0.0554033 max: 0.378428
smoothSolver:  Solving for Ux, Initial residual = 0.00255885, Final residual = 3.2137e-08, No Iterations 3
smoothSolver:  Solving for Uy, Initial residual = 0.00254642, Final residual = 2.39285e-08, No Iterations 3
DICPCG:  Solving for p, Initial residual = 0.020573, Final residual = 9.17113e-08, No Iterations 172
time step continuity errors : sum local = 8.59458e-13, global = -2.49732e-15, cumulative = -4.94434e-13
DICPCG:  Solving for p, Initial residual = 0.0017938, Final residual = 9.47117e-08, No Iterations 146
time step continuity errors : sum local = 8.69328e-13, global = 3.23573e-15, cumulative = -4.91198e-13
ExecutionTime = 4.97 s  ClockTime = 8 s

forces forces write:
    sum of forces:
        pressure : (0.0697198 1.07446e-05 -4.54606e-21)
        viscous  : (0.0646098 -2.47571e-07 -9.30896e-22)
        porous   : (0 0 0)
    sum of moments:
        pressure : (-9.71935e-21 2.26533e-21 -2.793e-14)
        viscous  : (4.75341e-22 -1.57898e-21 1.1725e-07)
        porous   : (0 0 0)

forceCoeffs forceCoeffs write:
    Cm    = 2.345e-06
    Cd    = 2.68659
    Cl    = 0.000209941
    Cl(f) = 0.000107316
    Cl(r) = 0.000102626

Time = 0.11

Courant Number mean: 0.0554051 max: 0.377778
smoothSolver:  Solving for Ux, Initial residual = 0.00244635, Final residual = 3.14995e-08, No Iterations 3
smoothSolver:  Solving for Uy, Initial residual = 0.00245789, Final residual = 2.34695e-08, No Iterations 3
DICPCG:  Solving for p, Initial residual = 0.0193737, Final residual = 8.6921e-08, No Iterations 172
time step continuity errors : sum local = 7.91777e-13, global = -3.29505e-15, cumulative = -4.94493e-13
DICPCG:  Solving for p, Initial residual = 0.0017212, Final residual = 9.48228e-08, No Iterations 136
time step continuity errors : sum local = 8.47076e-13, global = -8.73373e-15, cumulative = -5.03227e-13
ExecutionTime = 5.11 s  ClockTime = 8 s

forces forces write:
    sum of forces:
        pressure : (0.0679811 1.04901e-05 -4.63467e-21)
        viscous  : (0.0627185 -2.04835e-07 -9.1324e-22)
        porous   : (0 0 0)
    sum of moments:
        pressure : (-9.47611e-21 2.2217e-21 -2.97988e-14)
        viscous  : (4.68943e-22 -1.53146e-21 1.09622e-07)
        porous   : (0 0 0)

forceCoeffs forceCoeffs write:
    Cm    = 2.19245e-06
    Cd    = 2.61399
    Cl    = 0.000205704
    Cl(f) = 0.000105045
    Cl(r) = 0.00010066

Time = 0.115

Courant Number mean: 0.0554068 max: 0.377065
smoothSolver:  Solving for Ux, Initial residual = 0.00234328, Final residual = 3.09218e-08, No Iterations 3
smoothSolver:  Solving for Uy, Initial residual = 0.00237671, Final residual = 2.3113e-08, No Iterations 3
DICPCG:  Solving for p, Initial residual = 0.0183663, Final residual = 9.66737e-08, No Iterations 171
time step continuity errors : sum local = 8.57631e-13, global = -6.84326e-15, cumulative = -5.1007e-13
DICPCG:  Solving for p, Initial residual = 0.00165381, Final residual = 8.97444e-08, No Iterations 147
time step continuity errors : sum local = 7.81799e-13, global = 7.39913e-15, cumulative = -5.02671e-13
ExecutionTime = 5.27 s  ClockTime = 8 s

forces forces write:
    sum of forces:
        pressure : (0.0663741 1.01943e-05 -4.71582e-21)
        viscous  : (0.0609686 -1.65955e-07 -8.98114e-22)
        porous   : (0 0 0)
    sum of moments:
        pressure : (-9.24896e-21 2.18113e-21 -2.95577e-14)
        viscous  : (4.62398e-22 -1.48729e-21 1.02808e-07)
        porous   : (0 0 0)

forceCoeffs forceCoeffs write:
    Cm    = 2.05615e-06
    Cd    = 2.54685
    Cl    = 0.000200566
    Cl(f) = 0.000102339
    Cl(r) = 9.82269e-05

Time = 0.12

Courant Number mean: 0.0554083 max: 0.376292
smoothSolver:  Solving for Ux, Initial residual = 0.00224905, Final residual = 3.0361e-08, No Iterations 3
smoothSolver:  Solving for Uy, Initial residual = 0.00230164, Final residual = 2.27881e-08, No Iterations 3
DICPCG:  Solving for p, Initial residual = 0.017414, Final residual = 8.99877e-08, No Iterations 171
time step continuity errors : sum local = 7.7868e-13, global = -7.78581e-15, cumulative = -5.10457e-13
DICPCG:  Solving for p, Initial residual = 0.00160476, Final residual = 9.67552e-08, No Iterations 149
time step continuity errors : sum local = 8.22882e-13, global = 1.08315e-14, cumulative = -4.99626e-13
ExecutionTime = 5.42 s  ClockTime = 8 s

forces forces write:
    sum of forces:
        pressure : (0.064891 9.88099e-06 -4.79043e-21)
        viscous  : (0.0593462 -1.29449e-07 -8.85215e-22)
        porous   : (0 0 0)
    sum of moments:
        pressure : (-9.03853e-21 2.14336e-21 -2.87197e-14)
        viscous  : (4.5586e-22 -1.44615e-21 9.67219e-08)
        porous   : (0 0 0)

forceCoeffs forceCoeffs write:
    Cm    = 1.93444e-06
    Cd    = 2.48475
    Cl    = 0.000195031
    Cl(f) = 9.94499e-05
    Cl(r) = 9.5581e-05

Time = 0.125

Courant Number mean: 0.0554098 max: 0.375466
smoothSolver:  Solving for Ux, Initial residual = 0.00216279, Final residual = 2.98131e-08, No Iterations 3
smoothSolver:  Solving for Uy, Initial residual = 0.00223233, Final residual = 2.24485e-08, No Iterations 3
DICPCG:  Solving for p, Initial residual = 0.0168276, Final residual = 9.36604e-08, No Iterations 170
time step continuity errors : sum local = 7.91382e-13, global = -1.09321e-14, cumulative = -5.10558e-13
DICPCG:  Solving for p, Initial residual = 0.00158414, Final residual = 9.36342e-08, No Iterations 150
time step continuity errors : sum local = 7.78169e-13, global = 1.1619e-14, cumulative = -4.98939e-13
ExecutionTime = 5.57 s  ClockTime = 8 s

forces forces write:
    sum of forces:
        pressure : (0.0635206 9.31882e-06 -4.85868e-21)
        viscous  : (0.0578393 -9.93574e-08 -8.74299e-22)
        porous   : (0 0 0)
    sum of moments:
        pressure : (-8.84337e-21 2.10813e-21 -2.87414e-14)
        viscous  : (4.49363e-22 -1.40776e-21 9.12876e-08)
        porous   : (0 0 0)

forceCoeffs forceCoeffs write:
    Cm    = 1.82575e-06
    Cd    = 2.4272
    Cl    = 0.000184389
    Cl(f) = 9.40204e-05
    Cl(r) = 9.03689e-05

Time = 0.13

Courant Number mean: 0.0554112 max: 0.374623
smoothSolver:  Solving for Ux, Initial residual = 0.0020835, Final residual = 2.92797e-08, No Iterations 3
smoothSolver:  Solving for Uy, Initial residual = 0.00216809, Final residual = 2.20893e-08, No Iterations 3
DICPCG:  Solving for p, Initial residual = 0.0160083, Final residual = 9.69106e-08, No Iterations 168
time step continuity errors : sum local = 8.00447e-13, global = -1.29693e-14, cumulative = -5.11908e-13
DICPCG:  Solving for p, Initial residual = 0.00156139, Final residual = 9.1321e-08, No Iterations 149
time step continuity errors : sum local = 7.42574e-13, global = 1.03896e-14, cumulative = -5.01518e-13
ExecutionTime = 5.72 s  ClockTime = 8 s

forces forces write:
    sum of forces:
        pressure : (0.0622538 8.87819e-06 -4.92042e-21)
        viscous  : (0.0564369 -7.29635e-08 -8.65131e-22)
        porous   : (0 0 0)
    sum of moments:
        pressure : (-8.6627e-21 2.07526e-21 -2.88433e-14)
        viscous  : (4.43015e-22 -1.37188e-21 8.64301e-08)
        porous   : (0 0 0)

forceCoeffs forceCoeffs write:
    Cm    = 1.7286e-06
    Cd    = 2.37381
    Cl    = 0.000176105
    Cl(f) = 8.97809e-05
    Cl(r) = 8.63237e-05

Time = 0.135

Courant Number mean: 0.0554125 max: 0.373758
smoothSolver:  Solving for Ux, Initial residual = 0.00201048, Final residual = 2.87967e-08, No Iterations 3
smoothSolver:  Solving for Uy, Initial residual = 0.00210882, Final residual = 2.17423e-08, No Iterations 3
DICPCG:  Solving for p, Initial residual = 0.0152941, Final residual = 9.33946e-08, No Iterations 167
time step continuity errors : sum local = 7.55071e-13, global = -1.19787e-14, cumulative = -5.13497e-13
DICPCG:  Solving for p, Initial residual = 0.00151572, Final residual = 9.02939e-08, No Iterations 149
time step continuity errors : sum local = 7.19329e-13, global = 9.92527e-15, cumulative = -5.03572e-13
ExecutionTime = 5.88 s  ClockTime = 9 s

forces forces write:
    sum of forces:
        pressure : (0.0610794 8.4481e-06 -4.97709e-21)
        viscous  : (0.0551294 -4.79834e-08 -8.57522e-22)
        porous   : (0 0 0)
    sum of moments:
        pressure : (-8.49359e-21 2.04449e-21 -2.72316e-14)
        viscous  : (4.3672e-22 -1.33826e-21 8.20906e-08)
        porous   : (0 0 0)

forceCoeffs forceCoeffs write:
    Cm    = 1.64181e-06
    Cd    = 2.32418
    Cl    = 0.000168002
    Cl(f) = 8.5643e-05
    Cl(r) = 8.23594e-05

Time = 0.14

Courant Number mean: 0.0554138 max: 0.372855
smoothSolver:  Solving for Ux, Initial residual = 0.00194329, Final residual = 2.83242e-08, No Iterations 3
smoothSolver:  Solving for Uy, Initial residual = 0.00205412, Final residual = 2.1398e-08, No Iterations 3
DICPCG:  Solving for p, Initial residual = 0.0145343, Final residual = 9.63948e-08, No Iterations 165
time step continuity errors : sum local = 7.63893e-13, global = -9.14187e-15, cumulative = -5.12714e-13
DICPCG:  Solving for p, Initial residual = 0.0014762, Final residual = 8.81164e-08, No Iterations 149
time step continuity errors : sum local = 6.88723e-13, global = 9.2003e-15, cumulative = -5.03514e-13
ExecutionTime = 6.03 s  ClockTime = 9 s

forces forces write:
    sum of forces:
        pressure : (0.059988 8.15062e-06 -5.02931e-21)
        viscous  : (0.053908 -2.47135e-08 -8.51287e-22)
        porous   : (0 0 0)
    sum of moments:
        pressure : (-8.33517e-21 2.01565e-21 -2.80144e-14)
        viscous  : (4.30479e-22 -1.30669e-21 7.8215e-08)
        porous   : (0 0 0)

forceCoeffs forceCoeffs write:
    Cm    = 1.5643e-06
    Cd    = 2.27792
    Cl    = 0.000162518
    Cl(f) = 8.28234e-05
    Cl(r) = 7.96948e-05

Time = 0.145

Courant Number mean: 0.055415 max: 0.371918
smoothSolver:  Solving for Ux, Initial residual = 0.00188143, Final residual = 2.78605e-08, No Iterations 3
smoothSolver:  Solving for Uy, Initial residual = 0.0020035, Final residual = 2.10462e-08, No Iterations 3
DICPCG:  Solving for p, Initial residual = 0.0141381, Final residual = 9.43523e-08, No Iterations 164
time step continuity errors : sum local = 7.33738e-13, global = -6.41783e-15, cumulative = -5.09931e-13
DICPCG:  Solving for p, Initial residual = 0.00147982, Final residual = 8.87105e-08, No Iterations 149
time step continuity errors : sum local = 6.8088e-13, global = 8.90621e-15, cumulative = -5.01025e-13
ExecutionTime = 6.18 s  ClockTime = 9 s

forces forces write:
    sum of forces:
        pressure : (0.0589726 7.89323e-06 -5.07732e-21)
        viscous  : (0.052765 -5.77278e-09 -8.46273e-22)
        porous   : (0 0 0)
    sum of moments:
        pressure : (-8.18651e-21 1.98856e-21 -2.92089e-14)
        viscous  : (4.24336e-22 -1.27699e-21 7.47491e-08)
        porous   : (0 0 0)

forceCoeffs forceCoeffs write:
    Cm    = 1.49498e-06
    Cd    = 2.23475
    Cl    = 0.000157749
    Cl(f) = 8.03695e-05
    Cl(r) = 7.73796e-05

Time = 0.15

Courant Number mean: 0.0554161 max: 0.37095
smoothSolver:  Solving for Ux, Initial residual = 0.00182464, Final residual = 2.74051e-08, No Iterations 3
smoothSolver:  Solving for Uy, Initial residual = 0.00195716, Final residual = 2.06768e-08, No Iterations 3
DICPCG:  Solving for p, Initial residual = 0.0133516, Final residual = 9.41698e-08, No Iterations 163
time step continuity errors : sum local = 7.19247e-13, global = -3.48142e-15, cumulative = -5.04507e-13
DICPCG:  Solving for p, Initial residual = 0.00140397, Final residual = 9.81393e-08, No Iterations 148
time step continuity errors : sum local = 7.40233e-13, global = 9.23244e-15, cumulative = -4.95274e-13
ExecutionTime = 6.32 s  ClockTime = 9 s

forces forces write:
    sum of forces:
        pressure : (0.0580271 7.61347e-06 -5.12155e-21)
        viscous  : (0.0516934 1.15566e-08 -8.42316e-22)
        porous   : (0 0 0)
    sum of moments:
        pressure : (-8.04709e-21 1.9631e-21 -2.87027e-14)
        viscous  : (4.18322e-22 -1.24903e-21 7.16478e-08)
        porous   : (0 0 0)

forceCoeffs forceCoeffs write:
    Cm    = 1.43295e-06
    Cd    = 2.19441
    Cl    = 0.0001525
    Cl(f) = 7.76832e-05
    Cl(r) = 7.48173e-05

Time = 0.155

Courant Number mean: 0.0554172 max: 0.369955
smoothSolver:  Solving for Ux, Initial residual = 0.0017727, Final residual = 2.69558e-08, No Iterations 3
smoothSolver:  Solving for Uy, Initial residual = 0.00191554, Final residual = 2.02912e-08, No Iterations 3
DICPCG:  Solving for p, Initial residual = 0.0132788, Final residual = 8.88954e-08, No Iterations 163
time step continuity errors : sum local = 6.67267e-13, global = 1.77794e-15, cumulative = -4.93496e-13
DICPCG:  Solving for p, Initial residual = 0.00142122, Final residual = 9.99281e-08, No Iterations 148
time step continuity errors : sum local = 7.41085e-13, global = 9.09167e-15, cumulative = -4.84405e-13
ExecutionTime = 6.47 s  ClockTime = 9 s

forces forces write:
    sum of forces:
        pressure : (0.0571512 7.1556e-06 -5.16197e-21)
        viscous  : (0.050687 2.6169e-08 -8.39307e-22)
        porous   : (0 0 0)
    sum of moments:
        pressure : (-7.91822e-21 1.93911e-21 -2.53495e-14)
        viscous  : (4.12598e-22 -1.22267e-21 6.88772e-08)
        porous   : (0 0 0)

forceCoeffs forceCoeffs write:
    Cm    = 1.37754e-06
    Cd    = 2.15676
    Cl    = 0.000143635
    Cl(f) = 7.31953e-05
    Cl(r) = 7.04402e-05

Time = 0.16

Courant Number mean: 0.0554183 max: 0.368936
smoothSolver:  Solving for Ux, Initial residual = 0.00172462, Final residual = 2.65113e-08, No Iterations 3
smoothSolver:  Solving for Uy, Initial residual = 0.00187699, Final residual = 1.98893e-08, No Iterations 3
DICPCG:  Solving for p, Initial residual = 0.0129086, Final residual = 8.8398e-08, No Iterations 163
time step continuity errors : sum local = 6.5233e-13, global = 8.65013e-15, cumulative = -4.75754e-13
DICPCG:  Solving for p, Initial residual = 0.00137668, Final residual = 9.83232e-08, No Iterations 148
time step continuity errors : sum local = 7.17038e-13, global = 8.82285e-15, cumulative = -4.66932e-13
ExecutionTime = 6.61 s  ClockTime = 9 s

forces forces write:
    sum of forces:
        pressure : (0.0563349 6.96533e-06 -5.19926e-21)
        viscous  : (0.0497403 3.93463e-08 -8.37145e-22)
        porous   : (0 0 0)
    sum of moments:
        pressure : (-7.79703e-21 1.91654e-21 -2.78432e-14)
        viscous  : (4.06945e-22 -1.19776e-21 6.63994e-08)
        porous   : (0 0 0)

forceCoeffs forceCoeffs write:
    Cm    = 1.32799e-06
    Cd    = 2.1215
    Cl    = 0.000140093
    Cl(f) = 7.13747e-05
    Cl(r) = 6.87187e-05

Time = 0.165

Courant Number mean: 0.0554193 max: 0.367898
smoothSolver:  Solving for Ux, Initial residual = 0.00167964, Final residual = 2.60706e-08, No Iterations 3
smoothSolver:  Solving for Uy, Initial residual = 0.00184102, Final residual = 1.94736e-08, No Iterations 3
DICPCG:  Solving for p, Initial residual = 0.012482, Final residual = 9.40188e-08, No Iterations 163
time step continuity errors : sum local = 6.8249e-13, global = 1.45116e-14, cumulative = -4.5242e-13
DICPCG:  Solving for p, Initial residual = 0.00134289, Final residual = 9.82091e-08, No Iterations 148
time step continuity errors : sum local = 7.07306e-13, global = 8.94942e-15, cumulative = -4.4347e-13
ExecutionTime = 6.76 s  ClockTime = 9 s

forces forces write:
    sum of forces:
        pressure : (0.0555738 6.62659e-06 -5.23373e-21)
        viscous  : (0.0488482 5.14134e-08 -8.35715e-22)
        porous   : (0 0 0)
    sum of moments:
        pressure : (-7.68331e-21 1.89521e-21 -2.75735e-14)
        viscous  : (4.01459e-22 -1.1742e-21 6.41859e-08)
        porous   : (0 0 0)

forceCoeffs forceCoeffs write:
    Cm    = 1.28372e-06
    Cd    = 2.08844
    Cl    = 0.00013356
    Cl(f) = 6.80637e-05
    Cl(r) = 6.54963e-05

Time = 0.17

Courant Number mean: 0.0554203 max: 0.366842
smoothSolver:  Solving for Ux, Initial residual = 0.00163751, Final residual = 2.56321e-08, No Iterations 3
smoothSolver:  Solving for Uy, Initial residual = 0.00180726, Final residual = 1.9045e-08, No Iterations 3
DICPCG:  Solving for p, Initial residual = 0.0121103, Final residual = 9.56698e-08, No Iterations 164
time step continuity errors : sum local = 6.8549e-13, global = 1.97045e-14, cumulative = -4.23766e-13
DICPCG:  Solving for p, Initial residual = 0.00129507, Final residual = 9.50789e-08, No Iterations 148
time step continuity errors : sum local = 6.8189e-13, global = 8.93444e-15, cumulative = -4.14832e-13
ExecutionTime = 6.91 s  ClockTime = 10 s

forces forces write:
    sum of forces:
        pressure : (0.0548635 6.34321e-06 -5.2657e-21)
        viscous  : (0.048006 6.15277e-08 -8.34933e-22)
        porous   : (0 0 0)
    sum of moments:
        pressure : (-7.57542e-21 1.87492e-21 -2.78114e-14)
        viscous  : (3.96078e-22 -1.15185e-21 6.22094e-08)
        porous   : (0 0 0)

forceCoeffs forceCoeffs write:
    Cm    = 1.24419e-06
    Cd    = 2.05739
    Cl    = 0.000128095
    Cl(f) = 6.52915e-05
    Cl(r) = 6.28032e-05

Time = 0.175

Courant Number mean: 0.0554213 max: 0.365771
smoothSolver:  Solving for Ux, Initial residual = 0.001598, Final residual = 2.51964e-08, No Iterations 3
smoothSolver:  Solving for Uy, Initial residual = 0.00177584, Final residual = 1.86038e-08, No Iterations 3
DICPCG:  Solving for p, Initial residual = 0.0117433, Final residual = 9.33739e-08, No Iterations 165
time step continuity errors : sum local = 6.66437e-13, global = 2.05256e-14, cumulative = -3.94306e-13
DICPCG:  Solving for p, Initial residual = 0.00125792, Final residual = 9.49721e-08, No Iterations 148
time step continuity errors : sum local = 6.78445e-13, global = 9.37607e-15, cumulative = -3.8493e-13
ExecutionTime = 7.06 s  ClockTime = 10 s

forces forces write:
    sum of forces:
        pressure : (0.054199 6.02412e-06 -5.29537e-21)
        viscous  : (0.0472097 7.00357e-08 -8.34717e-22)
        porous   : (0 0 0)
    sum of moments:
        pressure : (-7.47401e-21 1.85582e-21 -2.79381e-14)
        viscous  : (3.90858e-22 -1.13064e-21 6.04448e-08)
        porous   : (0 0 0)

forceCoeffs forceCoeffs write:
    Cm    = 1.20889e-06
    Cd    = 2.02817
    Cl    = 0.000121883
    Cl(f) = 6.21504e-05
    Cl(r) = 5.97327e-05

Time = 0.18

Courant Number mean: 0.0554222 max: 0.364686
smoothSolver:  Solving for Ux, Initial residual = 0.00156096, Final residual = 2.47625e-08, No Iterations 3
smoothSolver:  Solving for Uy, Initial residual = 0.00174669, Final residual = 1.81512e-08, No Iterations 3
DICPCG:  Solving for p, Initial residual = 0.0117652, Final residual = 9.53066e-08, No Iterations 166
time step continuity errors : sum local = 6.778e-13, global = 1.75959e-14, cumulative = -3.67334e-13
DICPCG:  Solving for p, Initial residual = 0.00126427, Final residual = 9.44713e-08, No Iterations 148
time step continuity errors : sum local = 6.72479e-13, global = 9.47843e-15, cumulative = -3.57856e-13
ExecutionTime = 7.21 s  ClockTime = 10 s

forces forces write:
    sum of forces:
        pressure : (0.0535769 5.53825e-06 -5.32362e-21)
        viscous  : (0.0464557 7.61483e-08 -8.35e-22)
        porous   : (0 0 0)
    sum of moments:
        pressure : (-7.37788e-21 1.83765e-21 -2.5234e-14)
        viscous  : (3.8577e-22 -1.11046e-21 5.88724e-08)
        porous   : (0 0 0)

forceCoeffs forceCoeffs write:
    Cm    = 1.17745e-06
    Cd    = 2.00065
    Cl    = 0.000112288
    Cl(f) = 5.73214e-05
    Cl(r) = 5.49665e-05

Time = 0.185

Courant Number mean: 0.0554231 max: 0.363629
smoothSolver:  Solving for Ux, Initial residual = 0.00152622, Final residual = 2.43306e-08, No Iterations 3
smoothSolver:  Solving for Uy, Initial residual = 0.00171947, Final residual = 1.76913e-08, No Iterations 3
DICPCG:  Solving for p, Initial residual = 0.0115624, Final residual = 8.34068e-08, No Iterations 167
time step continuity errors : sum local = 5.90859e-13, global = 1.32068e-14, cumulative = -3.44649e-13
DICPCG:  Solving for p, Initial residual = 0.00127896, Final residual = 9.93576e-08, No Iterations 147
time step continuity errors : sum local = 7.0407e-13, global = 8.87844e-15, cumulative = -3.3577e-13
ExecutionTime = 7.36 s  ClockTime = 10 s

forces forces write:
    sum of forces:
        pressure : (0.0530037 5.54094e-06 -5.34937e-21)
        viscous  : (0.0457406 8.23387e-08 -8.35737e-22)
        porous   : (0 0 0)
    sum of moments:
        pressure : (-7.29052e-21 1.82049e-21 -2.84679e-14)
        viscous  : (3.81017e-22 -1.09129e-21 5.7467e-08)
        porous   : (0 0 0)

forceCoeffs forceCoeffs write:
    Cm    = 1.14934e-06
    Cd    = 1.97489
    Cl    = 0.000112466
    Cl(f) = 5.73821e-05
    Cl(r) = 5.50834e-05

Time = 0.19

Courant Number mean: 0.055424 max: 0.362588
smoothSolver:  Solving for Ux, Initial residual = 0.00149371, Final residual = 2.39011e-08, No Iterations 3
smoothSolver:  Solving for Uy, Initial residual = 0.00169431, Final residual = 1.72691e-08, No Iterations 3
DICPCG:  Solving for p, Initial residual = 0.0106724, Final residual = 8.75687e-08, No Iterations 167
time step continuity errors : sum local = 6.17895e-13, global = 1.22155e-14, cumulative = -3.23555e-13
DICPCG:  Solving for p, Initial residual = 0.00116531, Final residual = 8.90064e-08, No Iterations 147
time step continuity errors : sum local = 6.2832e-13, global = 8.38252e-15, cumulative = -3.15172e-13
ExecutionTime = 7.52 s  ClockTime = 10 s

forces forces write:
    sum of forces:
        pressure : (0.0524628 5.24633e-06 -5.37361e-21)
        viscous  : (0.0450613 8.73983e-08 -8.36852e-22)
        porous   : (0 0 0)
    sum of moments:
        pressure : (-7.20555e-21 1.80416e-21 -2.56911e-14)
        viscous  : (3.76286e-22 -1.07298e-21 5.62143e-08)
        porous   : (0 0 0)

forceCoeffs forceCoeffs write:
    Cm    = 1.12429e-06
    Cd    = 1.95048
    Cl    = 0.000106675
    Cl(f) = 5.44615e-05
    Cl(r) = 5.2213e-05

Time = 0.195

Courant Number mean: 0.0554248 max: 0.361542
smoothSolver:  Solving for Ux, Initial residual = 0.00146307, Final residual = 2.3474e-08, No Iterations 3
smoothSolver:  Solving for Uy, Initial residual = 0.00167079, Final residual = 1.69288e-08, No Iterations 3
DICPCG:  Solving for p, Initial residual = 0.0104056, Final residual = 8.97899e-08, No Iterations 167
time step continuity errors : sum local = 6.31498e-13, global = 1.16203e-14, cumulative = -3.03552e-13
DICPCG:  Solving for p, Initial residual = 0.00114971, Final residual = 9.73309e-08, No Iterations 147
time step continuity errors : sum local = 6.85062e-13, global = 8.95663e-15, cumulative = -2.94595e-13
ExecutionTime = 7.66 s  ClockTime = 10 s

forces forces write:
    sum of forces:
        pressure : (0.0519616 5.00144e-06 -5.39577e-21)
        viscous  : (0.0444152 9.15785e-08 -8.38312e-22)
        porous   : (0 0 0)
    sum of moments:
        pressure : (-7.12693e-21 1.7886e-21 -2.69074e-14)
        viscous  : (3.7181e-22 -1.0555e-21 5.5101e-08)
        porous   : (0 0 0)

forceCoeffs forceCoeffs write:
    Cm    = 1.10202e-06
    Cd    = 1.92754
    Cl    = 0.00010186
    Cl(f) = 5.20322e-05
    Cl(r) = 4.98282e-05

Time = 0.2

Courant Number mean: 0.0554257 max: 0.360492
smoothSolver:  Solving for Ux, Initial residual = 0.00143417, Final residual = 2.30541e-08, No Iterations 3
smoothSolver:  Solving for Uy, Initial residual = 0.00164888, Final residual = 1.65989e-08, No Iterations 3
DICPCG:  Solving for p, Initial residual = 0.00992151, Final residual = 9.22271e-08, No Iterations 167
time step continuity errors : sum local = 6.4703e-13, global = 1.04678e-14, cumulative = -2.84128e-13
DICPCG:  Solving for p, Initial residual = 0.0010993, Final residual = 9.13421e-08, No Iterations 147
time step continuity errors : sum local = 6.41457e-13, global = 8.74306e-15, cumulative = -2.75385e-13
ExecutionTime = 7.81 s  ClockTime = 11 s

forces forces write:
    sum of forces:
        pressure : (0.0514911 4.87582e-06 -5.41672e-21)
        viscous  : (0.0437997 9.47192e-08 -8.40052e-22)
        porous   : (0 0 0)
    sum of moments:
        pressure : (-7.0518e-21 1.77376e-21 -2.69084e-14)
        viscous  : (3.674e-22 -1.03879e-21 5.41102e-08)
        porous   : (0 0 0)

forceCoeffs forceCoeffs write:
    Cm    = 1.0822e-06
    Cd    = 1.90582
    Cl    = 9.94108e-05
    Cl(f) = 5.07876e-05
    Cl(r) = 4.86232e-05

Time = 0.205

Courant Number mean: 0.0554265 max: 0.359439
smoothSolver:  Solving for Ux, Initial residual = 0.00140693, Final residual = 2.27245e-08, No Iterations 3
smoothSolver:  Solving for Uy, Initial residual = 0.00162841, Final residual = 1.62671e-08, No Iterations 3
DICPCG:  Solving for p, Initial residual = 0.0095562, Final residual = 9.36579e-08, No Iterations 167
time step continuity errors : sum local = 6.55832e-13, global = 9.62014e-15, cumulative = -2.65764e-13
DICPCG:  Solving for p, Initial residual = 0.00105965, Final residual = 9.28238e-08, No Iterations 147
time step continuity errors : sum local = 6.50739e-13, global = 9.27739e-15, cumulative = -2.56487e-13
ExecutionTime = 7.96 s  ClockTime = 11 s

forces forces write:
    sum of forces:
        pressure : (0.0510487 4.66983e-06 -5.43651e-21)
        viscous  : (0.0432128 9.74021e-08 -8.42043e-22)
        porous   : (0 0 0)
    sum of moments:
        pressure : (-6.9802e-21 1.75971e-21 -2.67948e-14)
        viscous  : (3.63096e-22 -1.0228e-21 5.32309e-08)
        porous   : (0 0 0)

forceCoeffs forceCoeffs write:
    Cm    = 1.06462e-06
    Cd    = 1.88523
    Cl    = 9.53446e-05
    Cl(f) = 4.87369e-05
    Cl(r) = 4.66077e-05

Time = 0.21

Courant Number mean: 0.0554274 max: 0.358385
smoothSolver:  Solving for Ux, Initial residual = 0.00138118, Final residual = 2.24353e-08, No Iterations 3
smoothSolver:  Solving for Uy, Initial residual = 0.00160929, Final residual = 1.59395e-08, No Iterations 3
DICPCG:  Solving for p, Initial residual = 0.00937835, Final residual = 9.63949e-08, No Iterations 167
time step continuity errors : sum local = 6.74022e-13, global = 9.76386e-15, cumulative = -2.46723e-13
DICPCG:  Solving for p, Initial residual = 0.00104225, Final residual = 8.78168e-08, No Iterations 147
time step continuity errors : sum local = 6.14786e-13, global = 8.47872e-15, cumulative = -2.38244e-13
ExecutionTime = 8.11 s  ClockTime = 11 s

forces forces write:
    sum of forces:
        pressure : (0.0506354 4.54769e-06 -5.45487e-21)
        viscous  : (0.0426522 9.89667e-08 -8.44256e-22)
        porous   : (0 0 0)
    sum of moments:
        pressure : (-6.91262e-21 1.74636e-21 -2.69595e-14)
        viscous  : (3.58965e-22 -1.00748e-21 5.24513e-08)
        porous   : (0 0 0)

forceCoeffs forceCoeffs write:
    Cm    = 1.04903e-06
    Cd    = 1.86575
    Cl    = 9.29331e-05
    Cl(f) = 4.75156e-05
    Cl(r) = 4.54175e-05

Time = 0.215

Courant Number mean: 0.0554282 max: 0.357332
smoothSolver:  Solving for Ux, Initial residual = 0.00135678, Final residual = 2.2158e-08, No Iterations 3
smoothSolver:  Solving for Uy, Initial residual = 0.00159134, Final residual = 1.56243e-08, No Iterations 3
DICPCG:  Solving for p, Initial residual = 0.00927529, Final residual = 9.67478e-08, No Iterations 167
time step continuity errors : sum local = 6.75735e-13, global = 7.29828e-15, cumulative = -2.30946e-13
DICPCG:  Solving for p, Initial residual = 0.00104685, Final residual = 9.43382e-08, No Iterations 147
time step continuity errors : sum local = 6.59758e-13, global = 1.03992e-14, cumulative = -2.20547e-13
ExecutionTime = 8.25 s  ClockTime = 11 s

forces forces write:
    sum of forces:
        pressure : (0.0502481 4.31579e-06 -5.47291e-21)
        viscous  : (0.0421162 1.00596e-07 -8.46666e-22)
        porous   : (0 0 0)
    sum of moments:
        pressure : (-6.84848e-21 1.73352e-21 -2.53914e-14)
        viscous  : (3.54973e-22 -9.92778e-22 5.17641e-08)
        porous   : (0 0 0)

forceCoeffs forceCoeffs write:
    Cm    = 1.03528e-06
    Cd    = 1.84729
    Cl    = 8.83277e-05
    Cl(f) = 4.51991e-05
    Cl(r) = 4.31286e-05

Time = 0.22

Courant Number mean: 0.055429 max: 0.356279
smoothSolver:  Solving for Ux, Initial residual = 0.00133369, Final residual = 2.1883e-08, No Iterations 3
smoothSolver:  Solving for Uy, Initial residual = 0.00157416, Final residual = 1.53086e-08, No Iterations 3
DICPCG:  Solving for p, Initial residual = 0.00901654, Final residual = 9.89035e-08, No Iterations 167
time step continuity errors : sum local = 6.90285e-13, global = 7.79879e-15, cumulative = -2.12748e-13
DICPCG:  Solving for p, Initial residual = 0.00101773, Final residual = 9.12581e-08, No Iterations 147
time step continuity errors : sum local = 6.3782e-13, global = 9.64836e-15, cumulative = -2.031e-13
ExecutionTime = 8.4 s  ClockTime = 11 s

forces forces write:
    sum of forces:
        pressure : (0.0498883 4.18715e-06 -5.48956e-21)
        viscous  : (0.0416031 1.01792e-07 -8.49244e-22)
        porous   : (0 0 0)
    sum of moments:
        pressure : (-6.78854e-21 1.72128e-21 -2.67317e-14)
        viscous  : (3.51172e-22 -9.78673e-22 5.11611e-08)
        porous   : (0 0 0)

forceCoeffs forceCoeffs write:
    Cm    = 1.02322e-06
    Cd    = 1.82983
    Cl    = 8.57788e-05
    Cl(f) = 4.39126e-05
    Cl(r) = 4.18662e-05

Time = 0.225

Courant Number mean: 0.0554298 max: 0.355228
smoothSolver:  Solving for Ux, Initial residual = 0.0013118, Final residual = 2.16137e-08, No Iterations 3
smoothSolver:  Solving for Uy, Initial residual = 0.00155785, Final residual = 1.49913e-08, No Iterations 3
DICPCG:  Solving for p, Initial residual = 0.00857508, Final residual = 8.42758e-08, No Iterations 168
time step continuity errors : sum local = 5.87724e-13, global = 4.00864e-15, cumulative = -1.99091e-13
DICPCG:  Solving for p, Initial residual = 0.000977862, Final residual = 9.05182e-08, No Iterations 147
time step continuity errors : sum local = 6.31927e-13, global = 9.4976e-15, cumulative = -1.89594e-13
ExecutionTime = 8.54 s  ClockTime = 11 s

forces forces write:
    sum of forces:
        pressure : (0.0495514 3.91351e-06 -5.50534e-21)
        viscous  : (0.0411112 1.02307e-07 -8.51948e-22)
        porous   : (0 0 0)
    sum of moments:
        pressure : (-6.73172e-21 1.70962e-21 -2.54564e-14)
        viscous  : (3.47488e-22 -9.65135e-22 5.06341e-08)
        porous   : (0 0 0)

forceCoeffs forceCoeffs write:
    Cm    = 1.01268e-06
    Cd    = 1.81325
    Cl    = 8.03163e-05
    Cl(f) = 4.11709e-05
    Cl(r) = 3.91455e-05

Time = 0.23

Courant Number mean: 0.0554306 max: 0.354182
smoothSolver:  Solving for Ux, Initial residual = 0.001291, Final residual = 2.13431e-08, No Iterations 3
smoothSolver:  Solving for Uy, Initial residual = 0.00154263, Final residual = 1.46862e-08, No Iterations 3
DICPCG:  Solving for p, Initial residual = 0.00839454, Final residual = 8.77215e-08, No Iterations 168
time step continuity errors : sum local = 6.11111e-13, global = 4.70737e-15, cumulative = -1.84886e-13
DICPCG:  Solving for p, Initial residual = 0.000972095, Final residual = 9.58605e-08, No Iterations 146
time step continuity errors : sum local = 6.68456e-13, global = 6.06631e-15, cumulative = -1.7882e-13
ExecutionTime = 8.7 s  ClockTime = 11 s

forces forces write:
    sum of forces:
        pressure : (0.0492411 3.76954e-06 -5.51934e-21)
        viscous  : (0.0406393 1.02462e-07 -8.5478e-22)
        porous   : (0 0 0)
    sum of moments:
        pressure : (-6.6792e-21 1.69852e-21 -2.42207e-14)
        viscous  : (3.44085e-22 -9.52122e-22 5.01765e-08)
        porous   : (0 0 0)

forceCoeffs forceCoeffs write:
    Cm    = 1.00353e-06
    Cd    = 1.79761
    Cl    = 7.744e-05
    Cl(f) = 3.97235e-05
    Cl(r) = 3.77165e-05

Time = 0.235

Courant Number mean: 0.0554314 max: 0.353172
smoothSolver:  Solving for Ux, Initial residual = 0.00127122, Final residual = 2.10718e-08, No Iterations 3
smoothSolver:  Solving for Uy, Initial residual = 0.00152814, Final residual = 1.43782e-08, No Iterations 3
DICPCG:  Solving for p, Initial residual = 0.00809573, Final residual = 8.36889e-08, No Iterations 168
time step continuity errors : sum local = 5.82618e-13, global = 2.34242e-15, cumulative = -1.76477e-13
DICPCG:  Solving for p, Initial residual = 0.000935224, Final residual = 9.09057e-08, No Iterations 147
time step continuity errors : sum local = 6.33662e-13, global = 9.75949e-15, cumulative = -1.66718e-13
ExecutionTime = 8.85 s  ClockTime = 12 s

forces forces write:
    sum of forces:
        pressure : (0.0489477 3.70127e-06 -5.534e-21)
        viscous  : (0.040186 1.02485e-07 -8.57716e-22)
        porous   : (0 0 0)
    sum of moments:
        pressure : (-6.62812e-21 1.68779e-21 -2.49348e-14)
        viscous  : (3.40715e-22 -9.39538e-22 4.97805e-08)
        porous   : (0 0 0)

forceCoeffs forceCoeffs write:
    Cm    = 9.95609e-07
    Cd    = 1.78267
    Cl    = 7.60751e-05
    Cl(f) = 3.90331e-05
    Cl(r) = 3.70419e-05

Time = 0.24

Courant Number mean: 0.0554321 max: 0.352201
smoothSolver:  Solving for Ux, Initial residual = 0.00125237, Final residual = 2.08015e-08, No Iterations 3
smoothSolver:  Solving for Uy, Initial residual = 0.00151413, Final residual = 1.40687e-08, No Iterations 3
DICPCG:  Solving for p, Initial residual = 0.00757738, Final residual = 8.62915e-08, No Iterations 168
time step continuity errors : sum local = 6.00539e-13, global = 2.89448e-15, cumulative = -1.63823e-13
DICPCG:  Solving for p, Initial residual = 0.000871701, Final residual = 8.60046e-08, No Iterations 147
time step continuity errors : sum local = 5.99252e-13, global = 9.06935e-15, cumulative = -1.54754e-13
ExecutionTime = 9 s  ClockTime = 12 s

forces forces write:
    sum of forces:
        pressure : (0.048673 3.5548e-06 -5.54743e-21)
        viscous  : (0.0397502 1.0221e-07 -8.6073e-22)
        porous   : (0 0 0)
    sum of moments:
        pressure : (-6.57966e-21 1.67756e-21 -2.50859e-14)
        viscous  : (3.37447e-22 -9.27423e-22 4.94412e-08)
        porous   : (0 0 0)

forceCoeffs forceCoeffs write:
    Cm    = 9.88823e-07
    Cd    = 1.76846
    Cl    = 7.31401e-05
    Cl(f) = 3.75589e-05
    Cl(r) = 3.55812e-05

Time = 0.245

Courant Number mean: 0.0554329 max: 0.351236
smoothSolver:  Solving for Ux, Initial residual = 0.00123441, Final residual = 2.05333e-08, No Iterations 3
smoothSolver:  Solving for Uy, Initial residual = 0.00150099, Final residual = 1.3818e-08, No Iterations 3
DICPCG:  Solving for p, Initial residual = 0.00729567, Final residual = 8.68304e-08, No Iterations 168
time step continuity errors : sum local = 6.04159e-13, global = 2.61523e-15, cumulative = -1.52139e-13
DICPCG:  Solving for p, Initial residual = 0.00084083, Final residual = 9.87502e-08, No Iterations 146
time step continuity errors : sum local = 6.87947e-13, global = 7.78158e-15, cumulative = -1.44357e-13
ExecutionTime = 9.14 s  ClockTime = 12 s

forces forces write:
    sum of forces:
        pressure : (0.0484161 3.46663e-06 -5.56021e-21)
        viscous  : (0.0393307 1.01186e-07 -8.63812e-22)
        porous   : (0 0 0)
    sum of moments:
        pressure : (-6.53357e-21 1.66777e-21 -2.48844e-14)
        viscous  : (3.34285e-22 -9.15741e-22 4.91526e-08)
        porous   : (0 0 0)

forceCoeffs forceCoeffs write:
    Cm    = 9.83051e-07
    Cd    = 1.75493
    Cl    = 7.13563e-05
    Cl(f) = 3.66612e-05
    Cl(r) = 3.46951e-05

Time = 0.25

Courant Number mean: 0.0554337 max: 0.350278
smoothSolver:  Solving for Ux, Initial residual = 0.0012173, Final residual = 2.02744e-08, No Iterations 3
smoothSolver:  Solving for Uy, Initial residual = 0.00148858, Final residual = 1.36148e-08, No Iterations 3
DICPCG:  Solving for p, Initial residual = 0.00706704, Final residual = 8.71531e-08, No Iterations 168
time step continuity errors : sum local = 6.06373e-13, global = 2.24347e-15, cumulative = -1.42114e-13
DICPCG:  Solving for p, Initial residual = 0.000813975, Final residual = 9.66693e-08, No Iterations 146
time step continuity errors : sum local = 6.73413e-13, global = 7.74311e-15, cumulative = -1.34371e-13
ExecutionTime = 9.3 s  ClockTime = 12 s

forces forces write:
    sum of forces:
        pressure : (0.0481748 3.3491e-06 -5.5725e-21)
        viscous  : (0.0389266 1.004e-07 -8.66956e-22)
        porous   : (0 0 0)
    sum of moments:
        pressure : (-6.48939e-21 1.65843e-21 -2.4558e-14)
        viscous  : (3.31222e-22 -9.04456e-22 4.89107e-08)
        porous   : (0 0 0)

forceCoeffs forceCoeffs write:
    Cm    = 9.78213e-07
    Cd    = 1.74203
    Cl    = 6.89901e-05
    Cl(f) = 3.54733e-05
    Cl(r) = 3.35168e-05

Time = 0.255

Courant Number mean: 0.0554345 max: 0.349327
smoothSolver:  Solving for Ux, Initial residual = 0.00120097, Final residual = 2.00259e-08, No Iterations 3
smoothSolver:  Solving for Uy, Initial residual = 0.00147696, Final residual = 1.3407e-08, No Iterations 3
DICPCG:  Solving for p, Initial residual = 0.00688465, Final residual = 8.7566e-08, No Iterations 168
time step continuity errors : sum local = 6.09306e-13, global = 1.99659e-15, cumulative = -1.32374e-13
DICPCG:  Solving for p, Initial residual = 0.000792644, Final residual = 9.61494e-08, No Iterations 146
time step continuity errors : sum local = 6.69872e-13, global = 7.6322e-15, cumulative = -1.24742e-13
ExecutionTime = 9.44 s  ClockTime = 12 s

forces forces write:
    sum of forces:
        pressure : (0.0479503 3.21807e-06 -5.58426e-21)
        viscous  : (0.038537 9.94555e-08 -8.70151e-22)
        porous   : (0 0 0)
    sum of moments:
        pressure : (-6.4476e-21 1.64943e-21 -2.43005e-14)
        viscous  : (3.2829e-22 -8.93555e-22 4.87126e-08)
        porous   : (0 0 0)

forceCoeffs forceCoeffs write:
    Cm    = 9.74252e-07
    Cd    = 1.72975
    Cl    = 6.63505e-05
    Cl(f) = 3.41495e-05
    Cl(r) = 3.2201e-05

Time = 0.26

Courant Number mean: 0.0554352 max: 0.348384
smoothSolver:  Solving for Ux, Initial residual = 0.0011854, Final residual = 1.97779e-08, No Iterations 3
smoothSolver:  Solving for Uy, Initial residual = 0.00146618, Final residual = 1.32061e-08, No Iterations 3
DICPCG:  Solving for p, Initial residual = 0.00687659, Final residual = 8.76919e-08, No Iterations 168
time step continuity errors : sum local = 6.10292e-13, global = 1.90162e-15, cumulative = -1.2284e-13
DICPCG:  Solving for p, Initial residual = 0.000791225, Final residual = 9.14478e-08, No Iterations 146
time step continuity errors : sum local = 6.37204e-13, global = 7.05195e-15, cumulative = -1.15788e-13
ExecutionTime = 9.59 s  ClockTime = 12 s

forces forces write:
    sum of forces:
        pressure : (0.0477432 3.05935e-06 -5.59539e-21)
        viscous  : (0.038161 9.80821e-08 -8.73388e-22)
        porous   : (0 0 0)
    sum of moments:
        pressure : (-6.4084e-21 1.64075e-21 -2.31028e-14)
        viscous  : (3.25533e-22 -8.83002e-22 4.85553e-08)
        porous   : (0 0 0)

forceCoeffs forceCoeffs write:
    Cm    = 9.71105e-07
    Cd    = 1.71809
    Cl    = 6.31486e-05
    Cl(f) = 3.25454e-05
    Cl(r) = 3.06032e-05

Time = 0.265

Courant Number mean: 0.055436 max: 0.347449
smoothSolver:  Solving for Ux, Initial residual = 0.00117053, Final residual = 1.96779e-08, No Iterations 3
smoothSolver:  Solving for Uy, Initial residual = 0.00145615, Final residual = 1.3162e-08, No Iterations 3
DICPCG:  Solving for p, Initial residual = 0.00668429, Final residual = 8.68556e-08, No Iterations 168
time step continuity errors : sum local = 6.04616e-13, global = 1.51075e-15, cumulative = -1.14278e-13
DICPCG:  Solving for p, Initial residual = 0.000761962, Final residual = 9.17698e-08, No Iterations 146
time step continuity errors : sum local = 6.39589e-13, global = 7.32497e-15, cumulative = -1.06953e-13
ExecutionTime = 9.74 s  ClockTime = 12 s

forces forces write:
    sum of forces:
        pressure : (0.0475463 2.99393e-06 -5.60646e-21)
        viscous  : (0.0377979 9.52922e-08 -8.76652e-22)
        porous   : (0 0 0)
    sum of moments:
        pressure : (-6.36995e-21 1.63243e-21 -2.37252e-14)
        viscous  : (3.22748e-22 -8.72783e-22 4.84319e-08)
        porous   : (0 0 0)

forceCoeffs forceCoeffs write:
    Cm    = 9.68637e-07
    Cd    = 1.70688
    Cl    = 6.17844e-05
    Cl(f) = 3.18609e-05
    Cl(r) = 2.99236e-05

Time = 0.27

Courant Number mean: 0.0554368 max: 0.346522
smoothSolver:  Solving for Ux, Initial residual = 0.00115632, Final residual = 1.95732e-08, No Iterations 3
smoothSolver:  Solving for Uy, Initial residual = 0.00144657, Final residual = 1.31224e-08, No Iterations 3
DICPCG:  Solving for p, Initial residual = 0.00645862, Final residual = 8.77995e-08, No Iterations 168
time step continuity errors : sum local = 6.11086e-13, global = 2.20427e-15, cumulative = -1.04748e-13
DICPCG:  Solving for p, Initial residual = 0.000753133, Final residual = 9.07912e-08, No Iterations 141
time step continuity errors : sum local = 6.32378e-13, global = -2.4156e-15, cumulative = -1.07164e-13
ExecutionTime = 9.9 s  ClockTime = 13 s

forces forces write:
    sum of forces:
        pressure : (0.0473684 2.77145e-06 -5.61633e-21)
        viscous  : (0.037447 9.34996e-08 -8.79946e-22)
        porous   : (0 0 0)
    sum of moments:
        pressure : (-6.33505e-21 1.62449e-21 -2.05956e-14)
        viscous  : (3.2022e-22 -8.62906e-22 4.83422e-08)
        porous   : (0 0 0)

forceCoeffs forceCoeffs write:
    Cm    = 9.66844e-07
    Cd    = 1.69631
    Cl    = 5.72989e-05
    Cl(f) = 2.96163e-05
    Cl(r) = 2.76826e-05

Time = 0.275

Courant Number mean: 0.0554376 max: 0.345605
smoothSolver:  Solving for Ux, Initial residual = 0.00114281, Final residual = 1.94612e-08, No Iterations 3
smoothSolver:  Solving for Uy, Initial residual = 0.00143763, Final residual = 1.30743e-08, No Iterations 3
DICPCG:  Solving for p, Initial residual = 0.00631428, Final residual = 8.64812e-08, No Iterations 168
time step continuity errors : sum local = 6.01613e-13, global = 2.36596e-15, cumulative = -1.04798e-13
DICPCG:  Solving for p, Initial residual = 0.00074371, Final residual = 9.90622e-08, No Iterations 141
time step continuity errors : sum local = 6.89631e-13, global = -2.58016e-15, cumulative = -1.07378e-13
ExecutionTime = 10.04 s  ClockTime = 13 s

forces forces write:
    sum of forces:
        pressure : (0.0472047 2.63838e-06 -5.62571e-21)
        viscous  : (0.0371074 9.13267e-08 -8.83262e-22)
        porous   : (0 0 0)
    sum of moments:
        pressure : (-6.30187e-21 1.61676e-21 -2.03493e-14)
        viscous  : (3.1778e-22 -8.53333e-22 4.82846e-08)
        porous   : (0 0 0)

forceCoeffs forceCoeffs write:
    Cm    = 9.65691e-07
    Cd    = 1.68624
    Cl    = 5.45942e-05
    Cl(f) = 2.82628e-05
    Cl(r) = 2.63314e-05

Time = 0.28

Courant Number mean: 0.0554384 max: 0.344698
smoothSolver:  Solving for Ux, Initial residual = 0.00112995, Final residual = 1.9343e-08, No Iterations 3
smoothSolver:  Solving for Uy, Initial residual = 0.00142905, Final residual = 1.3019e-08, No Iterations 3
DICPCG:  Solving for p, Initial residual = 0.00630154, Final residual = 9.86333e-08, No Iterations 167
time step continuity errors : sum local = 6.85814e-13, global = 5.638e-15, cumulative = -1.0174e-13
DICPCG:  Solving for p, Initial residual = 0.000741705, Final residual = 9.50348e-08, No Iterations 143
time step continuity errors : sum local = 6.61252e-13, global = 9.36935e-16, cumulative = -1.00803e-13
ExecutionTime = 10.18 s  ClockTime = 13 s

forces forces write:
    sum of forces:
        pressure : (0.0470514 2.69425e-06 -5.63571e-21)
        viscous  : (0.0367785 8.99416e-08 -8.86592e-22)
        porous   : (0 0 0)
    sum of moments:
        pressure : (-6.26976e-21 1.6092e-21 -2.40686e-14)
        viscous  : (3.15377e-22 -8.44025e-22 4.82516e-08)
        porous   : (0 0 0)

forceCoeffs forceCoeffs write:
    Cm    = 9.65032e-07
    Cd    = 1.6766
    Cl    = 5.56838e-05
    Cl(f) = 2.88069e-05
    Cl(r) = 2.68768e-05

Time = 0.285

Courant Number mean: 0.0554392 max: 0.343802
smoothSolver:  Solving for Ux, Initial residual = 0.00111768, Final residual = 1.92198e-08, No Iterations 3
smoothSolver:  Solving for Uy, Initial residual = 0.00142062, Final residual = 1.29611e-08, No Iterations 3
DICPCG:  Solving for p, Initial residual = 0.00616133, Final residual = 9.75181e-08, No Iterations 167
time step continuity errors : sum local = 6.77743e-13, global = 6.83057e-15, cumulative = -9.39727e-14
DICPCG:  Solving for p, Initial residual = 0.000721765, Final residual = 9.72453e-08, No Iterations 140
time step continuity errors : sum local = 6.7629e-13, global = -1.75807e-15, cumulative = -9.57307e-14
ExecutionTime = 10.33 s  ClockTime = 13 s

forces forces write:
    sum of forces:
        pressure : (0.0469017 2.39848e-06 -5.64461e-21)
        viscous  : (0.0364603 8.75221e-08 -8.89909e-22)
        porous   : (0 0 0)
    sum of moments:
        pressure : (-6.23927e-21 1.6024e-21 -2.09153e-14)
        viscous  : (3.13133e-22 -8.35033e-22 4.82469e-08)
        porous   : (0 0 0)

forceCoeffs forceCoeffs write:
    Cm    = 9.64939e-07
    Cd    = 1.66724
    Cl    = 4.972e-05
    Cl(f) = 2.58249e-05
    Cl(r) = 2.38951e-05

Time = 0.29

Courant Number mean: 0.05544 max: 0.343163
smoothSolver:  Solving for Ux, Initial residual = 0.00110602, Final residual = 1.90899e-08, No Iterations 3
smoothSolver:  Solving for Uy, Initial residual = 0.00141252, Final residual = 1.28981e-08, No Iterations 3
DICPCG:  Solving for p, Initial residual = 0.00611751, Final residual = 9.21308e-08, No Iterations 167
time step continuity errors : sum local = 6.39838e-13, global = 5.96245e-15, cumulative = -8.97683e-14
DICPCG:  Solving for p, Initial residual = 0.000723065, Final residual = 9.30605e-08, No Iterations 143
time step continuity errors : sum local = 6.4653e-13, global = 1.90996e-15, cumulative = -8.78583e-14
ExecutionTime = 10.47 s  ClockTime = 13 s

forces forces write:
    sum of forces:
        pressure : (0.0467618 2.56353e-06 -5.65451e-21)
        viscous  : (0.0361522 8.59605e-08 -8.93236e-22)
        porous   : (0 0 0)
    sum of moments:
        pressure : (-6.20972e-21 1.59598e-21 -2.1179e-14)
        viscous  : (3.10919e-22 -8.26285e-22 4.82641e-08)
        porous   : (0 0 0)

forceCoeffs forceCoeffs write:
    Cm    = 9.65281e-07
    Cd    = 1.65828
    Cl    = 5.29899e-05
    Cl(f) = 2.74602e-05
    Cl(r) = 2.55296e-05

Time = 0.295

Courant Number mean: 0.0554408 max: 0.34285
smoothSolver:  Solving for Ux, Initial residual = 0.00109482, Final residual = 1.89561e-08, No Iterations 3
smoothSolver:  Solving for Uy, Initial residual = 0.00140444, Final residual = 1.286e-08, No Iterations 3
DICPCG:  Solving for p, Initial residual = 0.00568019, Final residual = 8.64806e-08, No Iterations 167
time step continuity errors : sum local = 6.00079e-13, global = 7.06422e-15, cumulative = -8.07941e-14
DICPCG:  Solving for p, Initial residual = 0.00067191, Final residual = 9.49031e-08, No Iterations 140
time step continuity errors : sum local = 6.58819e-13, global = 7.64993e-16, cumulative = -8.00291e-14
ExecutionTime = 10.62 s  ClockTime = 13 s

forces forces write:
    sum of forces:
        pressure : (0.046635 2.41839e-06 -5.66372e-21)
        viscous  : (0.0358535 8.40014e-08 -8.96564e-22)
        porous   : (0 0 0)
    sum of moments:
        pressure : (-6.18184e-21 1.58927e-21 -2.05936e-14)
        viscous  : (3.08783e-22 -8.17794e-22 4.83032e-08)
        porous   : (0 0 0)

forceCoeffs forceCoeffs write:
    Cm    = 9.66063e-07
    Cd    = 1.64977
    Cl    = 5.00478e-05
    Cl(f) = 2.599e-05
    Cl(r) = 2.40579e-05

Time = 0.3

Courant Number mean: 0.0554417 max: 0.342532
smoothSolver:  Solving for Ux, Initial residual = 0.00108399, Final residual = 1.88162e-08, No Iterations 3
smoothSolver:  Solving for Uy, Initial residual = 0.00139681, Final residual = 1.28729e-08, No Iterations 3
DICPCG:  Solving for p, Initial residual = 0.00533616, Final residual = 9.17669e-08, No Iterations 166
time step continuity errors : sum local = 6.36338e-13, global = 1.24419e-14, cumulative = -6.75872e-14
DICPCG:  Solving for p, Initial residual = 0.000633568, Final residual = 9.34979e-08, No Iterations 140
time step continuity errors : sum local = 6.48656e-13, global = 9.22366e-16, cumulative = -6.66648e-14
ExecutionTime = 10.77 s  ClockTime = 13 s

forces forces write:
    sum of forces:
        pressure : (0.0465212 2.28782e-06 -5.6721e-21)
        viscous  : (0.0355636 8.18409e-08 -8.99884e-22)
        porous   : (0 0 0)
    sum of moments:
        pressure : (-6.15528e-21 1.58274e-21 -2.08419e-14)
        viscous  : (3.06724e-22 -8.09562e-22 4.83632e-08)
        porous   : (0 0 0)

forceCoeffs forceCoeffs write:
    Cm    = 9.67263e-07
    Cd    = 1.64169
    Cl    = 4.73932e-05
    Cl(f) = 2.46639e-05
    Cl(r) = 2.27293e-05

Time = 0.305

Courant Number mean: 0.0554425 max: 0.342208
smoothSolver:  Solving for Ux, Initial residual = 0.00107357, Final residual = 1.86709e-08, No Iterations 3
smoothSolver:  Solving for Uy, Initial residual = 0.00138951, Final residual = 1.29139e-08, No Iterations 3
DICPCG:  Solving for p, Initial residual = 0.00523818, Final residual = 9.99922e-08, No Iterations 164
time step continuity errors : sum local = 6.92951e-13, global = 2.1511e-14, cumulative = -4.51538e-14
DICPCG:  Solving for p, Initial residual = 0.000620106, Final residual = 9.69249e-08, No Iterations 140
time step continuity errors : sum local = 6.7199e-13, global = 1.82573e-15, cumulative = -4.33281e-14
ExecutionTime = 10.91 s  ClockTime = 14 s

forces forces write:
    sum of forces:
        pressure : (0.0464151 2.295e-06 -5.68033e-21)
        viscous  : (0.0352822 7.9939e-08 -9.03188e-22)
        porous   : (0 0 0)
    sum of moments:
        pressure : (-6.12989e-21 1.57641e-21 -1.92637e-14)
        viscous  : (3.04731e-22 -8.01559e-22 4.8444e-08)
        porous   : (0 0 0)

forceCoeffs forceCoeffs write:
    Cm    = 9.68879e-07
    Cd    = 1.63395
    Cl    = 4.74987e-05
    Cl(f) = 2.47182e-05
    Cl(r) = 2.27805e-05

Time = 0.31

Courant Number mean: 0.0554434 max: 0.341881
smoothSolver:  Solving for Ux, Initial residual = 0.00106354, Final residual = 1.85207e-08, No Iterations 3
smoothSolver:  Solving for Uy, Initial residual = 0.00138245, Final residual = 1.29615e-08, No Iterations 3
DICPCG:  Solving for p, Initial residual = 0.00518929, Final residual = 9.39152e-08, No Iterations 162
time step continuity errors : sum local = 6.50412e-13, global = 2.18869e-14, cumulative = -2.14412e-14
DICPCG:  Solving for p, Initial residual = 0.000611646, Final residual = 9.23166e-08, No Iterations 135
time step continuity errors : sum local = 6.39594e-13, global = -1.58076e-15, cumulative = -2.30219e-14
ExecutionTime = 11.05 s  ClockTime = 14 s

forces forces write:
    sum of forces:
        pressure : (0.0463205 2.30166e-06 -5.68874e-21)
        viscous  : (0.0350087 7.84118e-08 -9.06485e-22)
        porous   : (0 0 0)
    sum of moments:
        pressure : (-6.10583e-21 1.57033e-21 -1.87583e-14)
        viscous  : (3.02809e-22 -7.93764e-22 4.85405e-08)
        porous   : (0 0 0)

forceCoeffs forceCoeffs write:
    Cm    = 9.7081e-07
    Cd    = 1.62658
    Cl    = 4.76015e-05
    Cl(f) = 2.47716e-05
    Cl(r) = 2.28299e-05

Time = 0.315

Courant Number mean: 0.0554443 max: 0.341548
smoothSolver:  Solving for Ux, Initial residual = 0.00105385, Final residual = 1.83655e-08, No Iterations 3
smoothSolver:  Solving for Uy, Initial residual = 0.0013756, Final residual = 1.30025e-08, No Iterations 3
DICPCG:  Solving for p, Initial residual = 0.00499204, Final residual = 9.68848e-08, No Iterations 161
time step continuity errors : sum local = 6.70525e-13, global = 1.58996e-14, cumulative = -7.12231e-15
DICPCG:  Solving for p, Initial residual = 0.000593388, Final residual = 9.54178e-08, No Iterations 140
time step continuity errors : sum local = 6.60604e-13, global = 4.64668e-15, cumulative = -2.47562e-15
ExecutionTime = 11.2 s  ClockTime = 14 s

forces forces write:
    sum of forces:
        pressure : (0.046231 2.19073e-06 -5.69662e-21)
        viscous  : (0.0347429 7.66458e-08 -9.09763e-22)
        porous   : (0 0 0)
    sum of moments:
        pressure : (-6.08287e-21 1.56477e-21 -1.81959e-14)
        viscous  : (3.00948e-22 -7.86194e-22 4.86534e-08)
        porous   : (0 0 0)

forceCoeffs forceCoeffs write:
    Cm    = 9.73068e-07
    Cd    = 1.61948
    Cl    = 4.53476e-05
    Cl(f) = 2.36469e-05
    Cl(r) = 2.17007e-05

Time = 0.32

Courant Number mean: 0.0554452 max: 0.341212
smoothSolver:  Solving for Ux, Initial residual = 0.00104446, Final residual = 1.82063e-08, No Iterations 3
smoothSolver:  Solving for Uy, Initial residual = 0.00136897, Final residual = 1.30448e-08, No Iterations 3
DICPCG:  Solving for p, Initial residual = 0.00501126, Final residual = 9.78504e-08, No Iterations 161
time step continuity errors : sum local = 6.76855e-13, global = 1.03887e-14, cumulative = 7.91304e-15
DICPCG:  Solving for p, Initial residual = 0.000597961, Final residual = 9.74441e-08, No Iterations 139
time step continuity errors : sum local = 6.74369e-13, global = 3.71584e-15, cumulative = 1.16289e-14
ExecutionTime = 11.34 s  ClockTime = 14 s

forces forces write:
    sum of forces:
        pressure : (0.046154 2.10961e-06 -5.70426e-21)
        viscous  : (0.0344844 7.44806e-08 -9.13035e-22)
        porous   : (0 0 0)
    sum of moments:
        pressure : (-6.06153e-21 1.55907e-21 -1.76339e-14)
        viscous  : (2.99247e-22 -7.78812e-22 4.87811e-08)
        porous   : (0 0 0)

forceCoeffs forceCoeffs write:
    Cm    = 9.75621e-07
    Cd    = 1.61277
    Cl    = 4.36819e-05
    Cl(f) = 2.28166e-05
    Cl(r) = 2.08653e-05

Time = 0.325

Courant Number mean: 0.0554461 max: 0.340873
smoothSolver:  Solving for Ux, Initial residual = 0.00103537, Final residual = 1.80432e-08, No Iterations 3
smoothSolver:  Solving for Uy, Initial residual = 0.00136244, Final residual = 1.30866e-08, No Iterations 3
DICPCG:  Solving for p, Initial residual = 0.00484396, Final residual = 9.30613e-08, No Iterations 162
time step continuity errors : sum local = 6.4356e-13, global = 7.916e-15, cumulative = 1.95449e-14
DICPCG:  Solving for p, Initial residual = 0.000572698, Final residual = 9.75361e-08, No Iterations 140
[...]

forceCoeffs forceCoeffs write:
    Cm    = 2.89703e-06
    Cd    = 1.29445
    Cl    = 2.70325e-05
    Cl(f) = 1.64133e-05
    Cl(r) = 1.06192e-05

Time = 16.885

Courant Number mean: 0.0571032 max: 0.317034
smoothSolver:  Solving for Ux, Initial residual = 3.79381e-05, Final residual = 3.37103e-08, No Iterations 1
smoothSolver:  Solving for Uy, Initial residual = 7.38015e-05, Final residual = 7.64231e-08, No Iterations 1
DICPCG:  Solving for p, Initial residual = 9.7386e-05, Final residual = 9.85869e-08, No Iterations 113
time step continuity errors : sum local = 7.17195e-13, global = 1.19272e-14, cumulative = 1.00823e-11
DICPCG:  Solving for p, Initial residual = 8.42508e-06, Final residual = 9.35358e-08, No Iterations 78
time step continuity errors : sum local = 6.80401e-13, global = -7.22152e-16, cumulative = 1.00816e-11
ExecutionTime = 416.22 s  ClockTime = 419 s

forces forces write:
    sum of forces:
        pressure : (0.048838 8.01011e-07 -2.10394e-21)
        viscous  : (0.0158842 5.35389e-07 -9.26046e-22)
        porous   : (0 0 0)
    sum of moments:
        pressure : (-4.06105e-21 1.00828e-21 4.30636e-13)
        viscous  : (1.19871e-22 -5.27109e-22 1.44553e-07)
        porous   : (0 0 0)

forceCoeffs forceCoeffs write:
    Cm    = 2.89106e-06
    Cd    = 1.29444
    Cl    = 2.6728e-05
    Cl(f) = 1.62551e-05
    Cl(r) = 1.04729e-05

Time = 16.89

Courant Number mean: 0.0571029 max: 0.317033
smoothSolver:  Solving for Ux, Initial residual = 3.79117e-05, Final residual = 3.36833e-08, No Iterations 1
smoothSolver:  Solving for Uy, Initial residual = 7.37468e-05, Final residual = 7.63573e-08, No Iterations 1
DICPCG:  Solving for p, Initial residual = 0.000112872, Final residual = 9.91568e-08, No Iterations 125
time step continuity errors : sum local = 7.21268e-13, global = -5.63698e-15, cumulative = 1.0076e-11
DICPCG:  Solving for p, Initial residual = 9.88274e-06, Final residual = 9.68092e-08, No Iterations 78
time step continuity errors : sum local = 7.04098e-13, global = -1.97154e-14, cumulative = 1.00563e-11
ExecutionTime = 416.33 s  ClockTime = 419 s

forces forces write:
    sum of forces:
        pressure : (0.0488375 8.25083e-07 -2.10324e-21)
        viscous  : (0.0158841 5.36495e-07 -9.2604e-22)
        porous   : (0 0 0)
    sum of moments:
        pressure : (-4.06099e-21 1.00834e-21 4.30638e-13)
        viscous  : (1.19871e-22 -5.27123e-22 1.44255e-07)
        porous   : (0 0 0)

forceCoeffs forceCoeffs write:
    Cm    = 2.8851e-06
    Cd    = 1.29443
    Cl    = 2.72316e-05
    Cl(f) = 1.65009e-05
    Cl(r) = 1.07307e-05

Time = 16.895

Courant Number mean: 0.0571026 max: 0.317032
smoothSolver:  Solving for Ux, Initial residual = 3.78928e-05, Final residual = 3.36612e-08, No Iterations 1
smoothSolver:  Solving for Uy, Initial residual = 7.37462e-05, Final residual = 7.63318e-08, No Iterations 1
DICPCG:  Solving for p, Initial residual = 0.000108541, Final residual = 9.01142e-08, No Iterations 129
time step continuity errors : sum local = 6.5538e-13, global = -6.64763e-15, cumulative = 1.00496e-11
DICPCG:  Solving for p, Initial residual = 8.59185e-06, Final residual = 9.07646e-08, No Iterations 78
time step continuity errors : sum local = 6.60049e-13, global = -7.78649e-15, cumulative = 1.00418e-11
ExecutionTime = 416.44 s  ClockTime = 419 s

forces forces write:
    sum of forces:
        pressure : (0.0488372 8.5296e-07 -2.10279e-21)
        viscous  : (0.015884 5.37672e-07 -9.26035e-22)
        porous   : (0 0 0)
    sum of moments:
        pressure : (-4.06094e-21 1.00837e-21 4.30634e-13)
        viscous  : (1.19871e-22 -5.27131e-22 1.43958e-07)
        porous   : (0 0 0)

forceCoeffs forceCoeffs write:
    Cm    = 2.87916e-06
    Cd    = 1.29442
    Cl    = 2.78126e-05
    Cl(f) = 1.67855e-05
    Cl(r) = 1.10272e-05

Time = 16.9

Courant Number mean: 0.0571023 max: 0.31703
smoothSolver:  Solving for Ux, Initial residual = 3.78669e-05, Final residual = 3.36349e-08, No Iterations 1
smoothSolver:  Solving for Uy, Initial residual = 7.37053e-05, Final residual = 7.62828e-08, No Iterations 1
DICPCG:  Solving for p, Initial residual = 8.37763e-05, Final residual = 9.36081e-08, No Iterations 128
time step continuity errors : sum local = 6.8071e-13, global = -8.18863e-15, cumulative = 1.00337e-11
DICPCG:  Solving for p, Initial residual = 7.71197e-06, Final residual = 8.91619e-08, No Iterations 78
time step continuity errors : sum local = 6.48329e-13, global = -3.49989e-15, cumulative = 1.00302e-11
ExecutionTime = 416.54 s  ClockTime = 419 s

forces forces write:
    sum of forces:
        pressure : (0.0488368 8.75071e-07 -2.10236e-21)
        viscous  : (0.0158839 5.38897e-07 -9.26029e-22)
        porous   : (0 0 0)
    sum of moments:
        pressure : (-4.06089e-21 1.0084e-21 4.3063e-13)
        viscous  : (1.19871e-22 -5.27139e-22 1.43661e-07)
        porous   : (0 0 0)

forceCoeffs forceCoeffs write:
    Cm    = 2.87323e-06
    Cd    = 1.29441
    Cl    = 2.82794e-05
    Cl(f) = 1.70129e-05
    Cl(r) = 1.12664e-05

Time = 16.905

Courant Number mean: 0.0571019 max: 0.317029
smoothSolver:  Solving for Ux, Initial residual = 3.78414e-05, Final residual = 3.36086e-08, No Iterations 1
smoothSolver:  Solving for Uy, Initial residual = 7.36619e-05, Final residual = 7.62266e-08, No Iterations 1
DICPCG:  Solving for p, Initial residual = 8.16127e-05, Final residual = 9.32509e-08, No Iterations 128
time step continuity errors : sum local = 6.78045e-13, global = -8.67518e-15, cumulative = 1.00215e-11
DICPCG:  Solving for p, Initial residual = 7.7172e-06, Final residual = 9.02305e-08, No Iterations 78
time step continuity errors : sum local = 6.56037e-13, global = -3.46951e-15, cumulative = 1.0018e-11
ExecutionTime = 416.65 s  ClockTime = 419 s

forces forces write:
    sum of forces:
        pressure : (0.0488365 8.98501e-07 -2.10193e-21)
        viscous  : (0.0158838 5.4017e-07 -9.26024e-22)
        porous   : (0 0 0)
    sum of moments:
        pressure : (-4.06085e-21 1.00843e-21 4.30622e-13)
        viscous  : (1.19871e-22 -5.27146e-22 1.43366e-07)
        porous   : (0 0 0)

forceCoeffs forceCoeffs write:
    Cm    = 2.86732e-06
    Cd    = 1.29441
    Cl    = 2.87734e-05
    Cl(f) = 1.7254e-05
    Cl(r) = 1.15194e-05

Time = 16.91

Courant Number mean: 0.0571016 max: 0.317027
smoothSolver:  Solving for Ux, Initial residual = 3.78157e-05, Final residual = 3.35821e-08, No Iterations 1
smoothSolver:  Solving for Uy, Initial residual = 7.36171e-05, Final residual = 7.61679e-08, No Iterations 1
DICPCG:  Solving for p, Initial residual = 9.15724e-05, Final residual = 9.25139e-08, No Iterations 129
time step continuity errors : sum local = 6.72627e-13, global = -8.89254e-15, cumulative = 1.00091e-11
DICPCG:  Solving for p, Initial residual = 8.21881e-06, Final residual = 9.13229e-08, No Iterations 78
time step continuity errors : sum local = 6.63929e-13, global = -3.21788e-15, cumulative = 1.00059e-11
ExecutionTime = 416.76 s  ClockTime = 419 s

forces forces write:
    sum of forces:
        pressure : (0.0488362 9.2225e-07 -2.10155e-21)
        viscous  : (0.0158837 5.41489e-07 -9.2602e-22)
        porous   : (0 0 0)
    sum of moments:
        pressure : (-4.06081e-21 1.00846e-21 4.30616e-13)
        viscous  : (1.1987e-22 -5.27153e-22 1.43071e-07)
        porous   : (0 0 0)

forceCoeffs forceCoeffs write:
    Cm    = 2.86143e-06
    Cd    = 1.2944
    Cl    = 2.92748e-05
    Cl(f) = 1.74988e-05
    Cl(r) = 1.1776e-05

Time = 16.915

Courant Number mean: 0.0571013 max: 0.317026
smoothSolver:  Solving for Ux, Initial residual = 3.77891e-05, Final residual = 3.35555e-08, No Iterations 1
smoothSolver:  Solving for Uy, Initial residual = 7.35705e-05, Final residual = 7.61069e-08, No Iterations 1
DICPCG:  Solving for p, Initial residual = 0.000101457, Final residual = 8.09295e-08, No Iterations 128
time step continuity errors : sum local = 5.88339e-13, global = -1.77118e-15, cumulative = 1.00041e-11
DICPCG:  Solving for p, Initial residual = 9.08463e-06, Final residual = 9.24895e-08, No Iterations 78
time step continuity errors : sum local = 6.72293e-13, global = -2.06297e-14, cumulative = 9.9835e-12
ExecutionTime = 416.87 s  ClockTime = 420 s

forces forces write:
    sum of forces:
        pressure : (0.0488358 9.51455e-07 -2.10096e-21)
        viscous  : (0.0158836 5.42881e-07 -9.26014e-22)
        porous   : (0 0 0)
    sum of moments:
        pressure : (-4.06076e-21 1.00851e-21 4.30611e-13)
        viscous  : (1.19871e-22 -5.27165e-22 1.42777e-07)
        porous   : (0 0 0)

forceCoeffs forceCoeffs write:
    Cm    = 2.85556e-06
    Cd    = 1.29439
    Cl    = 2.98867e-05
    Cl(f) = 1.77989e-05
    Cl(r) = 1.20878e-05

Time = 16.92

Courant Number mean: 0.057101 max: 0.317024
smoothSolver:  Solving for Ux, Initial residual = 3.77668e-05, Final residual = 3.35312e-08, No Iterations 1
smoothSolver:  Solving for Uy, Initial residual = 7.35394e-05, Final residual = 7.60702e-08, No Iterations 1
DICPCG:  Solving for p, Initial residual = 9.0132e-05, Final residual = 8.18581e-08, No Iterations 128
time step continuity errors : sum local = 5.94993e-13, global = -4.96661e-15, cumulative = 9.97853e-12
DICPCG:  Solving for p, Initial residual = 8.43233e-06, Final residual = 8.9545e-08, No Iterations 78
time step continuity errors : sum local = 6.50794e-13, global = -1.61094e-14, cumulative = 9.96242e-12
ExecutionTime = 416.98 s  ClockTime = 420 s

forces forces write:
    sum of forces:
        pressure : (0.0488354 9.83045e-07 -2.10041e-21)
        viscous  : (0.0158835 5.4435e-07 -9.26009e-22)
        porous   : (0 0 0)
    sum of moments:
        pressure : (-4.06071e-21 1.00855e-21 4.30596e-13)
        viscous  : (1.19871e-22 -5.27175e-22 1.42485e-07)
        porous   : (0 0 0)

forceCoeffs forceCoeffs write:
    Cm    = 2.8497e-06
    Cd    = 1.29438
    Cl    = 3.05479e-05
    Cl(f) = 1.81236e-05
    Cl(r) = 1.24242e-05

Time = 16.925

Courant Number mean: 0.0571007 max: 0.317023
smoothSolver:  Solving for Ux, Initial residual = 3.77433e-05, Final residual = 3.35067e-08, No Iterations 1
smoothSolver:  Solving for Uy, Initial residual = 7.35066e-05, Final residual = 7.60322e-08, No Iterations 1
DICPCG:  Solving for p, Initial residual = 7.79315e-05, Final residual = 9.13121e-08, No Iterations 128
time step continuity errors : sum local = 6.63619e-13, global = -8.42544e-15, cumulative = 9.95399e-12
DICPCG:  Solving for p, Initial residual = 7.59034e-06, Final residual = 8.88287e-08, No Iterations 78
time step continuity errors : sum local = 6.45521e-13, global = -2.86733e-15, cumulative = 9.95113e-12
ExecutionTime = 417.09 s  ClockTime = 420 s

forces forces write:
    sum of forces:
        pressure : (0.0488351 1.00206e-06 -2.09998e-21)
        viscous  : (0.0158834 5.45832e-07 -9.26004e-22)
        porous   : (0 0 0)
    sum of moments:
        pressure : (-4.06067e-21 1.00858e-21 4.30585e-13)
        viscous  : (1.19871e-22 -5.27183e-22 1.42193e-07)
        porous   : (0 0 0)

forceCoeffs forceCoeffs write:
    Cm    = 2.84387e-06
    Cd    = 1.29437
    Cl    = 3.09579e-05
    Cl(f) = 1.83228e-05
    Cl(r) = 1.26351e-05

Time = 16.93

Courant Number mean: 0.0571004 max: 0.317022
smoothSolver:  Solving for Ux, Initial residual = 3.7718e-05, Final residual = 3.34806e-08, No Iterations 1
smoothSolver:  Solving for Uy, Initial residual = 7.34625e-05, Final residual = 7.59747e-08, No Iterations 1
DICPCG:  Solving for p, Initial residual = 8.0032e-05, Final residual = 9.00661e-08, No Iterations 128
time step continuity errors : sum local = 6.54496e-13, global = -7.71412e-15, cumulative = 9.94341e-12
DICPCG:  Solving for p, Initial residual = 7.65948e-06, Final residual = 8.90686e-08, No Iterations 78
time step continuity errors : sum local = 6.47198e-13, global = -3.09672e-15, cumulative = 9.94032e-12
ExecutionTime = 417.2 s  ClockTime = 420 s

forces forces write:
    sum of forces:
        pressure : (0.0488348 1.01889e-06 -2.09955e-21)
        viscous  : (0.0158834 5.47317e-07 -9.25999e-22)
        porous   : (0 0 0)
    sum of moments:
        pressure : (-4.06063e-21 1.00861e-21 4.30578e-13)
        viscous  : (1.1987e-22 -5.27191e-22 1.41902e-07)
        porous   : (0 0 0)

forceCoeffs forceCoeffs write:
    Cm    = 2.83805e-06
    Cd    = 1.29436
    Cl    = 3.13241e-05
    Cl(f) = 1.85001e-05
    Cl(r) = 1.2824e-05

Time = 16.935

Courant Number mean: 0.0571 max: 0.31702
smoothSolver:  Solving for Ux, Initial residual = 3.76925e-05, Final residual = 3.34546e-08, No Iterations 1
smoothSolver:  Solving for Uy, Initial residual = 7.34196e-05, Final residual = 7.59187e-08, No Iterations 1
DICPCG:  Solving for p, Initial residual = 8.11764e-05, Final residual = 9.44883e-08, No Iterations 128
time step continuity errors : sum local = 6.86561e-13, global = -9.79988e-15, cumulative = 9.93052e-12
DICPCG:  Solving for p, Initial residual = 7.68604e-06, Final residual = 9.06554e-08, No Iterations 78
time step continuity errors : sum local = 6.58661e-13, global = -2.72406e-15, cumulative = 9.92779e-12
ExecutionTime = 417.3 s  ClockTime = 420 s

forces forces write:
    sum of forces:
        pressure : (0.0488345 1.04551e-06 -2.09912e-21)
        viscous  : (0.0158833 5.4885e-07 -9.25994e-22)
        porous   : (0 0 0)
    sum of moments:
        pressure : (-4.06059e-21 1.00865e-21 4.3057e-13)
        viscous  : (1.1987e-22 -5.27199e-22 1.41612e-07)
        porous   : (0 0 0)

forceCoeffs forceCoeffs write:
    Cm    = 2.83225e-06
    Cd    = 1.29435
    Cl    = 3.18873e-05
    Cl(f) = 1.87759e-05
    Cl(r) = 1.31114e-05

Time = 16.94

Courant Number mean: 0.0570997 max: 0.317019
smoothSolver:  Solving for Ux, Initial residual = 3.76674e-05, Final residual = 3.34282e-08, No Iterations 1
smoothSolver:  Solving for Uy, Initial residual = 7.3374e-05, Final residual = 7.58583e-08, No Iterations 1
DICPCG:  Solving for p, Initial residual = 8.17454e-05, Final residual = 9.50082e-08, No Iterations 128
time step continuity errors : sum local = 6.90269e-13, global = -9.66809e-15, cumulative = 9.91812e-12
DICPCG:  Solving for p, Initial residual = 7.6858e-06, Final residual = 9.17127e-08, No Iterations 78
time step continuity errors : sum local = 6.66276e-13, global = -2.8081e-15, cumulative = 9.91532e-12
ExecutionTime = 417.41 s  ClockTime = 420 s

forces forces write:
    sum of forces:
        pressure : (0.0488342 1.07304e-06 -2.09869e-21)
        viscous  : (0.0158832 5.50435e-07 -9.25989e-22)
        porous   : (0 0 0)
    sum of moments:
        pressure : (-4.06055e-21 1.00868e-21 4.30562e-13)
        viscous  : (1.1987e-22 -5.27207e-22 1.41323e-07)
        porous   : (0 0 0)

forceCoeffs forceCoeffs write:
    Cm    = 2.82647e-06
    Cd    = 1.29435
    Cl    = 3.24695e-05
    Cl(f) = 1.90612e-05
    Cl(r) = 1.34083e-05

Time = 16.945

Courant Number mean: 0.0570994 max: 0.317017
smoothSolver:  Solving for Ux, Initial residual = 3.76421e-05, Final residual = 3.3402e-08, No Iterations 1
smoothSolver:  Solving for Uy, Initial residual = 7.33285e-05, Final residual = 7.57982e-08, No Iterations 1
DICPCG:  Solving for p, Initial residual = 8.95338e-05, Final residual = 8.59946e-08, No Iterations 129
time step continuity errors : sum local = 6.24721e-13, global = -1.06449e-14, cumulative = 9.90467e-12
DICPCG:  Solving for p, Initial residual = 7.96499e-06, Final residual = 9.73678e-08, No Iterations 78
time step continuity errors : sum local = 7.07295e-13, global = -3.45105e-15, cumulative = 9.90122e-12
ExecutionTime = 417.52 s  ClockTime = 420 s

forces forces write:
    sum of forces:
        pressure : (0.0488339 1.1164e-06 -2.09829e-21)
        viscous  : (0.0158831 5.52144e-07 -9.25984e-22)
        porous   : (0 0 0)
    sum of moments:
        pressure : (-4.06051e-21 1.00871e-21 4.30554e-13)
        viscous  : (1.19871e-22 -5.27214e-22 1.41035e-07)
        porous   : (0 0 0)

forceCoeffs forceCoeffs write:
    Cm    = 2.82071e-06
    Cd    = 1.29434
    Cl    = 3.33708e-05
    Cl(f) = 1.95061e-05
    Cl(r) = 1.38647e-05

Time = 16.95

Courant Number mean: 0.0570991 max: 0.317016
smoothSolver:  Solving for Ux, Initial residual = 3.76166e-05, Final residual = 3.33754e-08, No Iterations 1
smoothSolver:  Solving for Uy, Initial residual = 7.32796e-05, Final residual = 7.57327e-08, No Iterations 1
DICPCG:  Solving for p, Initial residual = 9.22611e-05, Final residual = 9.54993e-08, No Iterations 115
time step continuity errors : sum local = 6.93706e-13, global = -1.50161e-15, cumulative = 9.89972e-12
DICPCG:  Solving for p, Initial residual = 8.07985e-06, Final residual = 9.34772e-08, No Iterations 78
time step continuity errors : sum local = 6.7897e-13, global = -1.0273e-14, cumulative = 9.88944e-12
ExecutionTime = 417.62 s  ClockTime = 420 s

forces forces write:
    sum of forces:
        pressure : (0.0488335 1.10487e-06 -2.09787e-21)
        viscous  : (0.015883 5.53722e-07 -9.25979e-22)
        porous   : (0 0 0)
    sum of moments:
        pressure : (-4.06046e-21 1.00874e-21 4.30541e-13)
        viscous  : (1.1987e-22 -5.27222e-22 1.40748e-07)
        porous   : (0 0 0)

forceCoeffs forceCoeffs write:
    Cm    = 2.81497e-06
    Cd    = 1.29433
    Cl    = 3.31719e-05
    Cl(f) = 1.94009e-05
    Cl(r) = 1.3771e-05

Time = 16.955

Courant Number mean: 0.0570988 max: 0.317014
smoothSolver:  Solving for Ux, Initial residual = 3.75904e-05, Final residual = 3.33491e-08, No Iterations 1
smoothSolver:  Solving for Uy, Initial residual = 7.32379e-05, Final residual = 7.56789e-08, No Iterations 1
DICPCG:  Solving for p, Initial residual = 0.000113035, Final residual = 9.9919e-08, No Iterations 109
time step continuity errors : sum local = 7.25725e-13, global = 1.05544e-14, cumulative = 9.9e-12
DICPCG:  Solving for p, Initial residual = 9.52652e-06, Final residual = 9.14132e-08, No Iterations 79
time step continuity errors : sum local = 6.63862e-13, global = -2.28236e-14, cumulative = 9.87718e-12
ExecutionTime = 417.72 s  ClockTime = 420 s

forces forces write:
    sum of forces:
        pressure : (0.0488331 1.07227e-06 -2.09728e-21)
        viscous  : (0.0158829 5.55052e-07 -9.25973e-22)
        porous   : (0 0 0)
    sum of moments:
        pressure : (-4.0604e-21 1.00877e-21 4.30526e-13)
        viscous  : (1.1987e-22 -5.27233e-22 1.40462e-07)
        porous   : (0 0 0)

forceCoeffs forceCoeffs write:
    Cm    = 2.80926e-06
    Cd    = 1.29432
    Cl    = 3.25464e-05
    Cl(f) = 1.90825e-05
    Cl(r) = 1.34639e-05

Time = 16.96

Courant Number mean: 0.0570985 max: 0.317013
smoothSolver:  Solving for Ux, Initial residual = 3.75668e-05, Final residual = 3.33256e-08, No Iterations 1
smoothSolver:  Solving for Uy, Initial residual = 7.3213e-05, Final residual = 7.5654e-08, No Iterations 1
DICPCG:  Solving for p, Initial residual = 0.000101615, Final residual = 9.57429e-08, No Iterations 119
time step continuity errors : sum local = 6.95282e-13, global = -1.63826e-14, cumulative = 9.86079e-12
DICPCG:  Solving for p, Initial residual = 8.91548e-06, Final residual = 9.18709e-08, No Iterations 79
time step continuity errors : sum local = 6.67114e-13, global = -1.3926e-14, cumulative = 9.84687e-12
ExecutionTime = 417.83 s  ClockTime = 420 s

forces forces write:
    sum of forces:
        pressure : (0.0488328 1.06692e-06 -2.0969e-21)
        viscous  : (0.0158828 5.563e-07 -9.25968e-22)
        porous   : (0 0 0)
    sum of moments:
        pressure : (-4.06036e-21 1.0088e-21 4.30516e-13)
        viscous  : (1.1987e-22 -5.27239e-22 1.40178e-07)
        porous   : (0 0 0)

forceCoeffs forceCoeffs write:
    Cm    = 2.80356e-06
    Cd    = 1.29431
    Cl    = 3.24645e-05
    Cl(f) = 1.90358e-05
    Cl(r) = 1.34287e-05

Time = 16.965

Courant Number mean: 0.0570982 max: 0.317012
smoothSolver:  Solving for Ux, Initial residual = 3.75397e-05, Final residual = 3.32987e-08, No Iterations 1
smoothSolver:  Solving for Uy, Initial residual = 7.31574e-05, Final residual = 7.55858e-08, No Iterations 1
